*SPEF "ieee 1481-1999"
*DESIGN "DFFRF_2R1W"
*DATE "11:11:11 Fri 11 11, 1111"
*VENDOR "OpenRCX"
*PROGRAM "Parallel Extraction"
*VERSION "1.0"
*DESIGN_FLOW "NAME_SCOPE LOCAL" "PIN_CAP NONE"
*DIVIDER /
*DELIMITER :
*BUS_DELIMITER []
*T_UNIT 1 NS
*C_UNIT 1 PF
*R_UNIT 1 OHM
*L_UNIT 1 HENRY

*NAME_MAP
*1 CLK
*2 DA[0]
*3 DA[10]
*4 DA[11]
*5 DA[12]
*6 DA[13]
*7 DA[14]
*8 DA[15]
*9 DA[16]
*10 DA[17]
*11 DA[18]
*12 DA[19]
*13 DA[1]
*14 DA[20]
*15 DA[21]
*16 DA[22]
*17 DA[23]
*18 DA[24]
*19 DA[25]
*20 DA[26]
*21 DA[27]
*22 DA[28]
*23 DA[29]
*24 DA[2]
*25 DA[30]
*26 DA[31]
*27 DA[3]
*28 DA[4]
*29 DA[5]
*30 DA[6]
*31 DA[7]
*32 DA[8]
*33 DA[9]
*34 DB[0]
*35 DB[10]
*36 DB[11]
*37 DB[12]
*38 DB[13]
*39 DB[14]
*40 DB[15]
*41 DB[16]
*42 DB[17]
*43 DB[18]
*44 DB[19]
*45 DB[1]
*46 DB[20]
*47 DB[21]
*48 DB[22]
*49 DB[23]
*50 DB[24]
*51 DB[25]
*52 DB[26]
*53 DB[27]
*54 DB[28]
*55 DB[29]
*56 DB[2]
*57 DB[30]
*58 DB[31]
*59 DB[3]
*60 DB[4]
*61 DB[5]
*62 DB[6]
*63 DB[7]
*64 DB[8]
*65 DB[9]
*66 DW[0]
*67 DW[10]
*68 DW[11]
*69 DW[12]
*70 DW[13]
*71 DW[14]
*72 DW[15]
*73 DW[16]
*74 DW[17]
*75 DW[18]
*76 DW[19]
*77 DW[1]
*78 DW[20]
*79 DW[21]
*80 DW[22]
*81 DW[23]
*82 DW[24]
*83 DW[25]
*84 DW[26]
*85 DW[27]
*86 DW[28]
*87 DW[29]
*88 DW[2]
*89 DW[30]
*90 DW[31]
*91 DW[3]
*92 DW[4]
*93 DW[5]
*94 DW[6]
*95 DW[7]
*96 DW[8]
*97 DW[9]
*98 RA[0]
*99 RA[1]
*100 RA[2]
*101 RA[3]
*102 RA[4]
*103 RB[0]
*104 RB[1]
*105 RB[2]
*106 RB[3]
*107 RB[4]
*108 RW[0]
*109 RW[1]
*110 RW[2]
*111 RW[3]
*112 RW[4]
*115 WE
*116 DEC0\.D\.EN
*117 DEC0\.D0\.A_buf\[0\]
*118 DEC0\.D0\.A_buf\[1\]
*119 DEC0\.D0\.A_buf\[2\]
*120 DEC0\.D0\.EN
*121 DEC0\.D0\.EN_buf
*122 DEC0\.D1\.A_buf\[0\]
*123 DEC0\.D1\.A_buf\[1\]
*124 DEC0\.D1\.A_buf\[2\]
*125 DEC0\.D1\.EN
*126 DEC0\.D1\.EN_buf
*127 DEC0\.D2\.A_buf\[0\]
*128 DEC0\.D2\.A_buf\[1\]
*129 DEC0\.D2\.A_buf\[2\]
*130 DEC0\.D2\.EN
*131 DEC0\.D2\.EN_buf
*132 DEC0\.D3\.A_buf\[0\]
*133 DEC0\.D3\.A_buf\[1\]
*134 DEC0\.D3\.A_buf\[2\]
*135 DEC0\.D3\.EN
*136 DEC0\.D3\.EN_buf
*137 DEC1\.D\.EN
*138 DEC1\.D0\.A_buf\[0\]
*139 DEC1\.D0\.A_buf\[1\]
*140 DEC1\.D0\.A_buf\[2\]
*141 DEC1\.D0\.EN
*142 DEC1\.D0\.EN_buf
*143 DEC1\.D1\.A_buf\[0\]
*144 DEC1\.D1\.A_buf\[1\]
*145 DEC1\.D1\.A_buf\[2\]
*146 DEC1\.D1\.EN
*147 DEC1\.D1\.EN_buf
*148 DEC1\.D2\.A_buf\[0\]
*149 DEC1\.D2\.A_buf\[1\]
*150 DEC1\.D2\.A_buf\[2\]
*151 DEC1\.D2\.EN
*152 DEC1\.D2\.EN_buf
*153 DEC1\.D3\.A_buf\[0\]
*154 DEC1\.D3\.A_buf\[1\]
*155 DEC1\.D3\.A_buf\[2\]
*156 DEC1\.D3\.EN
*157 DEC1\.D3\.EN_buf
*158 DEC2\.D\.EN
*159 DEC2\.D0\.A_buf\[0\]
*160 DEC2\.D0\.A_buf\[1\]
*161 DEC2\.D0\.A_buf\[2\]
*162 DEC2\.D0\.EN
*163 DEC2\.D0\.EN_buf
*164 DEC2\.D1\.A_buf\[0\]
*165 DEC2\.D1\.A_buf\[1\]
*166 DEC2\.D1\.A_buf\[2\]
*167 DEC2\.D1\.EN
*168 DEC2\.D1\.EN_buf
*169 DEC2\.D2\.A_buf\[0\]
*170 DEC2\.D2\.A_buf\[1\]
*171 DEC2\.D2\.A_buf\[2\]
*172 DEC2\.D2\.EN
*173 DEC2\.D2\.EN_buf
*174 DEC2\.D3\.A_buf\[0\]
*175 DEC2\.D3\.A_buf\[1\]
*176 DEC2\.D3\.A_buf\[2\]
*177 DEC2\.D3\.EN
*178 DEC2\.D3\.EN_buf
*179 REGF\[10\]\.RFW\.GCLK\[0\]
*180 REGF\[10\]\.RFW\.GCLK\[1\]
*181 REGF\[10\]\.RFW\.GCLK\[2\]
*182 REGF\[10\]\.RFW\.GCLK\[3\]
*183 REGF\[10\]\.RFW\.SEL1
*184 REGF\[10\]\.RFW\.SEL1_B\[0\]
*185 REGF\[10\]\.RFW\.SEL1_B\[1\]
*186 REGF\[10\]\.RFW\.SEL1_B\[2\]
*187 REGF\[10\]\.RFW\.SEL1_B\[3\]
*188 REGF\[10\]\.RFW\.SEL2
*189 REGF\[10\]\.RFW\.SEL2_B\[0\]
*190 REGF\[10\]\.RFW\.SEL2_B\[1\]
*191 REGF\[10\]\.RFW\.SEL2_B\[2\]
*192 REGF\[10\]\.RFW\.SEL2_B\[3\]
*193 REGF\[10\]\.RFW\.SELW
*194 REGF\[10\]\.RFW\.q_wire\[0\]
*195 REGF\[10\]\.RFW\.q_wire\[10\]
*196 REGF\[10\]\.RFW\.q_wire\[11\]
*197 REGF\[10\]\.RFW\.q_wire\[12\]
*198 REGF\[10\]\.RFW\.q_wire\[13\]
*199 REGF\[10\]\.RFW\.q_wire\[14\]
*200 REGF\[10\]\.RFW\.q_wire\[15\]
*201 REGF\[10\]\.RFW\.q_wire\[16\]
*202 REGF\[10\]\.RFW\.q_wire\[17\]
*203 REGF\[10\]\.RFW\.q_wire\[18\]
*204 REGF\[10\]\.RFW\.q_wire\[19\]
*205 REGF\[10\]\.RFW\.q_wire\[1\]
*206 REGF\[10\]\.RFW\.q_wire\[20\]
*207 REGF\[10\]\.RFW\.q_wire\[21\]
*208 REGF\[10\]\.RFW\.q_wire\[22\]
*209 REGF\[10\]\.RFW\.q_wire\[23\]
*210 REGF\[10\]\.RFW\.q_wire\[24\]
*211 REGF\[10\]\.RFW\.q_wire\[25\]
*212 REGF\[10\]\.RFW\.q_wire\[26\]
*213 REGF\[10\]\.RFW\.q_wire\[27\]
*214 REGF\[10\]\.RFW\.q_wire\[28\]
*215 REGF\[10\]\.RFW\.q_wire\[29\]
*216 REGF\[10\]\.RFW\.q_wire\[2\]
*217 REGF\[10\]\.RFW\.q_wire\[30\]
*218 REGF\[10\]\.RFW\.q_wire\[31\]
*219 REGF\[10\]\.RFW\.q_wire\[3\]
*220 REGF\[10\]\.RFW\.q_wire\[4\]
*221 REGF\[10\]\.RFW\.q_wire\[5\]
*222 REGF\[10\]\.RFW\.q_wire\[6\]
*223 REGF\[10\]\.RFW\.q_wire\[7\]
*224 REGF\[10\]\.RFW\.q_wire\[8\]
*225 REGF\[10\]\.RFW\.q_wire\[9\]
*226 REGF\[10\]\.RFW\.we_wire
*227 REGF\[11\]\.RFW\.GCLK\[0\]
*228 REGF\[11\]\.RFW\.GCLK\[1\]
*229 REGF\[11\]\.RFW\.GCLK\[2\]
*230 REGF\[11\]\.RFW\.GCLK\[3\]
*231 REGF\[11\]\.RFW\.SEL1
*232 REGF\[11\]\.RFW\.SEL1_B\[0\]
*233 REGF\[11\]\.RFW\.SEL1_B\[1\]
*234 REGF\[11\]\.RFW\.SEL1_B\[2\]
*235 REGF\[11\]\.RFW\.SEL1_B\[3\]
*236 REGF\[11\]\.RFW\.SEL2
*237 REGF\[11\]\.RFW\.SEL2_B\[0\]
*238 REGF\[11\]\.RFW\.SEL2_B\[1\]
*239 REGF\[11\]\.RFW\.SEL2_B\[2\]
*240 REGF\[11\]\.RFW\.SEL2_B\[3\]
*241 REGF\[11\]\.RFW\.SELW
*242 REGF\[11\]\.RFW\.q_wire\[0\]
*243 REGF\[11\]\.RFW\.q_wire\[10\]
*244 REGF\[11\]\.RFW\.q_wire\[11\]
*245 REGF\[11\]\.RFW\.q_wire\[12\]
*246 REGF\[11\]\.RFW\.q_wire\[13\]
*247 REGF\[11\]\.RFW\.q_wire\[14\]
*248 REGF\[11\]\.RFW\.q_wire\[15\]
*249 REGF\[11\]\.RFW\.q_wire\[16\]
*250 REGF\[11\]\.RFW\.q_wire\[17\]
*251 REGF\[11\]\.RFW\.q_wire\[18\]
*252 REGF\[11\]\.RFW\.q_wire\[19\]
*253 REGF\[11\]\.RFW\.q_wire\[1\]
*254 REGF\[11\]\.RFW\.q_wire\[20\]
*255 REGF\[11\]\.RFW\.q_wire\[21\]
*256 REGF\[11\]\.RFW\.q_wire\[22\]
*257 REGF\[11\]\.RFW\.q_wire\[23\]
*258 REGF\[11\]\.RFW\.q_wire\[24\]
*259 REGF\[11\]\.RFW\.q_wire\[25\]
*260 REGF\[11\]\.RFW\.q_wire\[26\]
*261 REGF\[11\]\.RFW\.q_wire\[27\]
*262 REGF\[11\]\.RFW\.q_wire\[28\]
*263 REGF\[11\]\.RFW\.q_wire\[29\]
*264 REGF\[11\]\.RFW\.q_wire\[2\]
*265 REGF\[11\]\.RFW\.q_wire\[30\]
*266 REGF\[11\]\.RFW\.q_wire\[31\]
*267 REGF\[11\]\.RFW\.q_wire\[3\]
*268 REGF\[11\]\.RFW\.q_wire\[4\]
*269 REGF\[11\]\.RFW\.q_wire\[5\]
*270 REGF\[11\]\.RFW\.q_wire\[6\]
*271 REGF\[11\]\.RFW\.q_wire\[7\]
*272 REGF\[11\]\.RFW\.q_wire\[8\]
*273 REGF\[11\]\.RFW\.q_wire\[9\]
*274 REGF\[11\]\.RFW\.we_wire
*275 REGF\[12\]\.RFW\.GCLK\[0\]
*276 REGF\[12\]\.RFW\.GCLK\[1\]
*277 REGF\[12\]\.RFW\.GCLK\[2\]
*278 REGF\[12\]\.RFW\.GCLK\[3\]
*279 REGF\[12\]\.RFW\.SEL1
*280 REGF\[12\]\.RFW\.SEL1_B\[0\]
*281 REGF\[12\]\.RFW\.SEL1_B\[1\]
*282 REGF\[12\]\.RFW\.SEL1_B\[2\]
*283 REGF\[12\]\.RFW\.SEL1_B\[3\]
*284 REGF\[12\]\.RFW\.SEL2
*285 REGF\[12\]\.RFW\.SEL2_B\[0\]
*286 REGF\[12\]\.RFW\.SEL2_B\[1\]
*287 REGF\[12\]\.RFW\.SEL2_B\[2\]
*288 REGF\[12\]\.RFW\.SEL2_B\[3\]
*289 REGF\[12\]\.RFW\.SELW
*290 REGF\[12\]\.RFW\.q_wire\[0\]
*291 REGF\[12\]\.RFW\.q_wire\[10\]
*292 REGF\[12\]\.RFW\.q_wire\[11\]
*293 REGF\[12\]\.RFW\.q_wire\[12\]
*294 REGF\[12\]\.RFW\.q_wire\[13\]
*295 REGF\[12\]\.RFW\.q_wire\[14\]
*296 REGF\[12\]\.RFW\.q_wire\[15\]
*297 REGF\[12\]\.RFW\.q_wire\[16\]
*298 REGF\[12\]\.RFW\.q_wire\[17\]
*299 REGF\[12\]\.RFW\.q_wire\[18\]
*300 REGF\[12\]\.RFW\.q_wire\[19\]
*301 REGF\[12\]\.RFW\.q_wire\[1\]
*302 REGF\[12\]\.RFW\.q_wire\[20\]
*303 REGF\[12\]\.RFW\.q_wire\[21\]
*304 REGF\[12\]\.RFW\.q_wire\[22\]
*305 REGF\[12\]\.RFW\.q_wire\[23\]
*306 REGF\[12\]\.RFW\.q_wire\[24\]
*307 REGF\[12\]\.RFW\.q_wire\[25\]
*308 REGF\[12\]\.RFW\.q_wire\[26\]
*309 REGF\[12\]\.RFW\.q_wire\[27\]
*310 REGF\[12\]\.RFW\.q_wire\[28\]
*311 REGF\[12\]\.RFW\.q_wire\[29\]
*312 REGF\[12\]\.RFW\.q_wire\[2\]
*313 REGF\[12\]\.RFW\.q_wire\[30\]
*314 REGF\[12\]\.RFW\.q_wire\[31\]
*315 REGF\[12\]\.RFW\.q_wire\[3\]
*316 REGF\[12\]\.RFW\.q_wire\[4\]
*317 REGF\[12\]\.RFW\.q_wire\[5\]
*318 REGF\[12\]\.RFW\.q_wire\[6\]
*319 REGF\[12\]\.RFW\.q_wire\[7\]
*320 REGF\[12\]\.RFW\.q_wire\[8\]
*321 REGF\[12\]\.RFW\.q_wire\[9\]
*322 REGF\[12\]\.RFW\.we_wire
*323 REGF\[13\]\.RFW\.GCLK\[0\]
*324 REGF\[13\]\.RFW\.GCLK\[1\]
*325 REGF\[13\]\.RFW\.GCLK\[2\]
*326 REGF\[13\]\.RFW\.GCLK\[3\]
*327 REGF\[13\]\.RFW\.SEL1
*328 REGF\[13\]\.RFW\.SEL1_B\[0\]
*329 REGF\[13\]\.RFW\.SEL1_B\[1\]
*330 REGF\[13\]\.RFW\.SEL1_B\[2\]
*331 REGF\[13\]\.RFW\.SEL1_B\[3\]
*332 REGF\[13\]\.RFW\.SEL2
*333 REGF\[13\]\.RFW\.SEL2_B\[0\]
*334 REGF\[13\]\.RFW\.SEL2_B\[1\]
*335 REGF\[13\]\.RFW\.SEL2_B\[2\]
*336 REGF\[13\]\.RFW\.SEL2_B\[3\]
*337 REGF\[13\]\.RFW\.SELW
*338 REGF\[13\]\.RFW\.q_wire\[0\]
*339 REGF\[13\]\.RFW\.q_wire\[10\]
*340 REGF\[13\]\.RFW\.q_wire\[11\]
*341 REGF\[13\]\.RFW\.q_wire\[12\]
*342 REGF\[13\]\.RFW\.q_wire\[13\]
*343 REGF\[13\]\.RFW\.q_wire\[14\]
*344 REGF\[13\]\.RFW\.q_wire\[15\]
*345 REGF\[13\]\.RFW\.q_wire\[16\]
*346 REGF\[13\]\.RFW\.q_wire\[17\]
*347 REGF\[13\]\.RFW\.q_wire\[18\]
*348 REGF\[13\]\.RFW\.q_wire\[19\]
*349 REGF\[13\]\.RFW\.q_wire\[1\]
*350 REGF\[13\]\.RFW\.q_wire\[20\]
*351 REGF\[13\]\.RFW\.q_wire\[21\]
*352 REGF\[13\]\.RFW\.q_wire\[22\]
*353 REGF\[13\]\.RFW\.q_wire\[23\]
*354 REGF\[13\]\.RFW\.q_wire\[24\]
*355 REGF\[13\]\.RFW\.q_wire\[25\]
*356 REGF\[13\]\.RFW\.q_wire\[26\]
*357 REGF\[13\]\.RFW\.q_wire\[27\]
*358 REGF\[13\]\.RFW\.q_wire\[28\]
*359 REGF\[13\]\.RFW\.q_wire\[29\]
*360 REGF\[13\]\.RFW\.q_wire\[2\]
*361 REGF\[13\]\.RFW\.q_wire\[30\]
*362 REGF\[13\]\.RFW\.q_wire\[31\]
*363 REGF\[13\]\.RFW\.q_wire\[3\]
*364 REGF\[13\]\.RFW\.q_wire\[4\]
*365 REGF\[13\]\.RFW\.q_wire\[5\]
*366 REGF\[13\]\.RFW\.q_wire\[6\]
*367 REGF\[13\]\.RFW\.q_wire\[7\]
*368 REGF\[13\]\.RFW\.q_wire\[8\]
*369 REGF\[13\]\.RFW\.q_wire\[9\]
*370 REGF\[13\]\.RFW\.we_wire
*371 REGF\[14\]\.RFW\.GCLK\[0\]
*372 REGF\[14\]\.RFW\.GCLK\[1\]
*373 REGF\[14\]\.RFW\.GCLK\[2\]
*374 REGF\[14\]\.RFW\.GCLK\[3\]
*375 REGF\[14\]\.RFW\.SEL1
*376 REGF\[14\]\.RFW\.SEL1_B\[0\]
*377 REGF\[14\]\.RFW\.SEL1_B\[1\]
*378 REGF\[14\]\.RFW\.SEL1_B\[2\]
*379 REGF\[14\]\.RFW\.SEL1_B\[3\]
*380 REGF\[14\]\.RFW\.SEL2
*381 REGF\[14\]\.RFW\.SEL2_B\[0\]
*382 REGF\[14\]\.RFW\.SEL2_B\[1\]
*383 REGF\[14\]\.RFW\.SEL2_B\[2\]
*384 REGF\[14\]\.RFW\.SEL2_B\[3\]
*385 REGF\[14\]\.RFW\.SELW
*386 REGF\[14\]\.RFW\.q_wire\[0\]
*387 REGF\[14\]\.RFW\.q_wire\[10\]
*388 REGF\[14\]\.RFW\.q_wire\[11\]
*389 REGF\[14\]\.RFW\.q_wire\[12\]
*390 REGF\[14\]\.RFW\.q_wire\[13\]
*391 REGF\[14\]\.RFW\.q_wire\[14\]
*392 REGF\[14\]\.RFW\.q_wire\[15\]
*393 REGF\[14\]\.RFW\.q_wire\[16\]
*394 REGF\[14\]\.RFW\.q_wire\[17\]
*395 REGF\[14\]\.RFW\.q_wire\[18\]
*396 REGF\[14\]\.RFW\.q_wire\[19\]
*397 REGF\[14\]\.RFW\.q_wire\[1\]
*398 REGF\[14\]\.RFW\.q_wire\[20\]
*399 REGF\[14\]\.RFW\.q_wire\[21\]
*400 REGF\[14\]\.RFW\.q_wire\[22\]
*401 REGF\[14\]\.RFW\.q_wire\[23\]
*402 REGF\[14\]\.RFW\.q_wire\[24\]
*403 REGF\[14\]\.RFW\.q_wire\[25\]
*404 REGF\[14\]\.RFW\.q_wire\[26\]
*405 REGF\[14\]\.RFW\.q_wire\[27\]
*406 REGF\[14\]\.RFW\.q_wire\[28\]
*407 REGF\[14\]\.RFW\.q_wire\[29\]
*408 REGF\[14\]\.RFW\.q_wire\[2\]
*409 REGF\[14\]\.RFW\.q_wire\[30\]
*410 REGF\[14\]\.RFW\.q_wire\[31\]
*411 REGF\[14\]\.RFW\.q_wire\[3\]
*412 REGF\[14\]\.RFW\.q_wire\[4\]
*413 REGF\[14\]\.RFW\.q_wire\[5\]
*414 REGF\[14\]\.RFW\.q_wire\[6\]
*415 REGF\[14\]\.RFW\.q_wire\[7\]
*416 REGF\[14\]\.RFW\.q_wire\[8\]
*417 REGF\[14\]\.RFW\.q_wire\[9\]
*418 REGF\[14\]\.RFW\.we_wire
*419 REGF\[15\]\.RFW\.GCLK\[0\]
*420 REGF\[15\]\.RFW\.GCLK\[1\]
*421 REGF\[15\]\.RFW\.GCLK\[2\]
*422 REGF\[15\]\.RFW\.GCLK\[3\]
*423 REGF\[15\]\.RFW\.SEL1
*424 REGF\[15\]\.RFW\.SEL1_B\[0\]
*425 REGF\[15\]\.RFW\.SEL1_B\[1\]
*426 REGF\[15\]\.RFW\.SEL1_B\[2\]
*427 REGF\[15\]\.RFW\.SEL1_B\[3\]
*428 REGF\[15\]\.RFW\.SEL2
*429 REGF\[15\]\.RFW\.SEL2_B\[0\]
*430 REGF\[15\]\.RFW\.SEL2_B\[1\]
*431 REGF\[15\]\.RFW\.SEL2_B\[2\]
*432 REGF\[15\]\.RFW\.SEL2_B\[3\]
*433 REGF\[15\]\.RFW\.SELW
*434 REGF\[15\]\.RFW\.q_wire\[0\]
*435 REGF\[15\]\.RFW\.q_wire\[10\]
*436 REGF\[15\]\.RFW\.q_wire\[11\]
*437 REGF\[15\]\.RFW\.q_wire\[12\]
*438 REGF\[15\]\.RFW\.q_wire\[13\]
*439 REGF\[15\]\.RFW\.q_wire\[14\]
*440 REGF\[15\]\.RFW\.q_wire\[15\]
*441 REGF\[15\]\.RFW\.q_wire\[16\]
*442 REGF\[15\]\.RFW\.q_wire\[17\]
*443 REGF\[15\]\.RFW\.q_wire\[18\]
*444 REGF\[15\]\.RFW\.q_wire\[19\]
*445 REGF\[15\]\.RFW\.q_wire\[1\]
*446 REGF\[15\]\.RFW\.q_wire\[20\]
*447 REGF\[15\]\.RFW\.q_wire\[21\]
*448 REGF\[15\]\.RFW\.q_wire\[22\]
*449 REGF\[15\]\.RFW\.q_wire\[23\]
*450 REGF\[15\]\.RFW\.q_wire\[24\]
*451 REGF\[15\]\.RFW\.q_wire\[25\]
*452 REGF\[15\]\.RFW\.q_wire\[26\]
*453 REGF\[15\]\.RFW\.q_wire\[27\]
*454 REGF\[15\]\.RFW\.q_wire\[28\]
*455 REGF\[15\]\.RFW\.q_wire\[29\]
*456 REGF\[15\]\.RFW\.q_wire\[2\]
*457 REGF\[15\]\.RFW\.q_wire\[30\]
*458 REGF\[15\]\.RFW\.q_wire\[31\]
*459 REGF\[15\]\.RFW\.q_wire\[3\]
*460 REGF\[15\]\.RFW\.q_wire\[4\]
*461 REGF\[15\]\.RFW\.q_wire\[5\]
*462 REGF\[15\]\.RFW\.q_wire\[6\]
*463 REGF\[15\]\.RFW\.q_wire\[7\]
*464 REGF\[15\]\.RFW\.q_wire\[8\]
*465 REGF\[15\]\.RFW\.q_wire\[9\]
*466 REGF\[15\]\.RFW\.we_wire
*467 REGF\[16\]\.RFW\.GCLK\[0\]
*468 REGF\[16\]\.RFW\.GCLK\[1\]
*469 REGF\[16\]\.RFW\.GCLK\[2\]
*470 REGF\[16\]\.RFW\.GCLK\[3\]
*471 REGF\[16\]\.RFW\.SEL1
*472 REGF\[16\]\.RFW\.SEL1_B\[0\]
*473 REGF\[16\]\.RFW\.SEL1_B\[1\]
*474 REGF\[16\]\.RFW\.SEL1_B\[2\]
*475 REGF\[16\]\.RFW\.SEL1_B\[3\]
*476 REGF\[16\]\.RFW\.SEL2
*477 REGF\[16\]\.RFW\.SEL2_B\[0\]
*478 REGF\[16\]\.RFW\.SEL2_B\[1\]
*479 REGF\[16\]\.RFW\.SEL2_B\[2\]
*480 REGF\[16\]\.RFW\.SEL2_B\[3\]
*481 REGF\[16\]\.RFW\.SELW
*482 REGF\[16\]\.RFW\.q_wire\[0\]
*483 REGF\[16\]\.RFW\.q_wire\[10\]
*484 REGF\[16\]\.RFW\.q_wire\[11\]
*485 REGF\[16\]\.RFW\.q_wire\[12\]
*486 REGF\[16\]\.RFW\.q_wire\[13\]
*487 REGF\[16\]\.RFW\.q_wire\[14\]
*488 REGF\[16\]\.RFW\.q_wire\[15\]
*489 REGF\[16\]\.RFW\.q_wire\[16\]
*490 REGF\[16\]\.RFW\.q_wire\[17\]
*491 REGF\[16\]\.RFW\.q_wire\[18\]
*492 REGF\[16\]\.RFW\.q_wire\[19\]
*493 REGF\[16\]\.RFW\.q_wire\[1\]
*494 REGF\[16\]\.RFW\.q_wire\[20\]
*495 REGF\[16\]\.RFW\.q_wire\[21\]
*496 REGF\[16\]\.RFW\.q_wire\[22\]
*497 REGF\[16\]\.RFW\.q_wire\[23\]
*498 REGF\[16\]\.RFW\.q_wire\[24\]
*499 REGF\[16\]\.RFW\.q_wire\[25\]
*500 REGF\[16\]\.RFW\.q_wire\[26\]
*501 REGF\[16\]\.RFW\.q_wire\[27\]
*502 REGF\[16\]\.RFW\.q_wire\[28\]
*503 REGF\[16\]\.RFW\.q_wire\[29\]
*504 REGF\[16\]\.RFW\.q_wire\[2\]
*505 REGF\[16\]\.RFW\.q_wire\[30\]
*506 REGF\[16\]\.RFW\.q_wire\[31\]
*507 REGF\[16\]\.RFW\.q_wire\[3\]
*508 REGF\[16\]\.RFW\.q_wire\[4\]
*509 REGF\[16\]\.RFW\.q_wire\[5\]
*510 REGF\[16\]\.RFW\.q_wire\[6\]
*511 REGF\[16\]\.RFW\.q_wire\[7\]
*512 REGF\[16\]\.RFW\.q_wire\[8\]
*513 REGF\[16\]\.RFW\.q_wire\[9\]
*514 REGF\[16\]\.RFW\.we_wire
*515 REGF\[17\]\.RFW\.GCLK\[0\]
*516 REGF\[17\]\.RFW\.GCLK\[1\]
*517 REGF\[17\]\.RFW\.GCLK\[2\]
*518 REGF\[17\]\.RFW\.GCLK\[3\]
*519 REGF\[17\]\.RFW\.SEL1
*520 REGF\[17\]\.RFW\.SEL1_B\[0\]
*521 REGF\[17\]\.RFW\.SEL1_B\[1\]
*522 REGF\[17\]\.RFW\.SEL1_B\[2\]
*523 REGF\[17\]\.RFW\.SEL1_B\[3\]
*524 REGF\[17\]\.RFW\.SEL2
*525 REGF\[17\]\.RFW\.SEL2_B\[0\]
*526 REGF\[17\]\.RFW\.SEL2_B\[1\]
*527 REGF\[17\]\.RFW\.SEL2_B\[2\]
*528 REGF\[17\]\.RFW\.SEL2_B\[3\]
*529 REGF\[17\]\.RFW\.SELW
*530 REGF\[17\]\.RFW\.q_wire\[0\]
*531 REGF\[17\]\.RFW\.q_wire\[10\]
*532 REGF\[17\]\.RFW\.q_wire\[11\]
*533 REGF\[17\]\.RFW\.q_wire\[12\]
*534 REGF\[17\]\.RFW\.q_wire\[13\]
*535 REGF\[17\]\.RFW\.q_wire\[14\]
*536 REGF\[17\]\.RFW\.q_wire\[15\]
*537 REGF\[17\]\.RFW\.q_wire\[16\]
*538 REGF\[17\]\.RFW\.q_wire\[17\]
*539 REGF\[17\]\.RFW\.q_wire\[18\]
*540 REGF\[17\]\.RFW\.q_wire\[19\]
*541 REGF\[17\]\.RFW\.q_wire\[1\]
*542 REGF\[17\]\.RFW\.q_wire\[20\]
*543 REGF\[17\]\.RFW\.q_wire\[21\]
*544 REGF\[17\]\.RFW\.q_wire\[22\]
*545 REGF\[17\]\.RFW\.q_wire\[23\]
*546 REGF\[17\]\.RFW\.q_wire\[24\]
*547 REGF\[17\]\.RFW\.q_wire\[25\]
*548 REGF\[17\]\.RFW\.q_wire\[26\]
*549 REGF\[17\]\.RFW\.q_wire\[27\]
*550 REGF\[17\]\.RFW\.q_wire\[28\]
*551 REGF\[17\]\.RFW\.q_wire\[29\]
*552 REGF\[17\]\.RFW\.q_wire\[2\]
*553 REGF\[17\]\.RFW\.q_wire\[30\]
*554 REGF\[17\]\.RFW\.q_wire\[31\]
*555 REGF\[17\]\.RFW\.q_wire\[3\]
*556 REGF\[17\]\.RFW\.q_wire\[4\]
*557 REGF\[17\]\.RFW\.q_wire\[5\]
*558 REGF\[17\]\.RFW\.q_wire\[6\]
*559 REGF\[17\]\.RFW\.q_wire\[7\]
*560 REGF\[17\]\.RFW\.q_wire\[8\]
*561 REGF\[17\]\.RFW\.q_wire\[9\]
*562 REGF\[17\]\.RFW\.we_wire
*563 REGF\[18\]\.RFW\.GCLK\[0\]
*564 REGF\[18\]\.RFW\.GCLK\[1\]
*565 REGF\[18\]\.RFW\.GCLK\[2\]
*566 REGF\[18\]\.RFW\.GCLK\[3\]
*567 REGF\[18\]\.RFW\.SEL1
*568 REGF\[18\]\.RFW\.SEL1_B\[0\]
*569 REGF\[18\]\.RFW\.SEL1_B\[1\]
*570 REGF\[18\]\.RFW\.SEL1_B\[2\]
*571 REGF\[18\]\.RFW\.SEL1_B\[3\]
*572 REGF\[18\]\.RFW\.SEL2
*573 REGF\[18\]\.RFW\.SEL2_B\[0\]
*574 REGF\[18\]\.RFW\.SEL2_B\[1\]
*575 REGF\[18\]\.RFW\.SEL2_B\[2\]
*576 REGF\[18\]\.RFW\.SEL2_B\[3\]
*577 REGF\[18\]\.RFW\.SELW
*578 REGF\[18\]\.RFW\.q_wire\[0\]
*579 REGF\[18\]\.RFW\.q_wire\[10\]
*580 REGF\[18\]\.RFW\.q_wire\[11\]
*581 REGF\[18\]\.RFW\.q_wire\[12\]
*582 REGF\[18\]\.RFW\.q_wire\[13\]
*583 REGF\[18\]\.RFW\.q_wire\[14\]
*584 REGF\[18\]\.RFW\.q_wire\[15\]
*585 REGF\[18\]\.RFW\.q_wire\[16\]
*586 REGF\[18\]\.RFW\.q_wire\[17\]
*587 REGF\[18\]\.RFW\.q_wire\[18\]
*588 REGF\[18\]\.RFW\.q_wire\[19\]
*589 REGF\[18\]\.RFW\.q_wire\[1\]
*590 REGF\[18\]\.RFW\.q_wire\[20\]
*591 REGF\[18\]\.RFW\.q_wire\[21\]
*592 REGF\[18\]\.RFW\.q_wire\[22\]
*593 REGF\[18\]\.RFW\.q_wire\[23\]
*594 REGF\[18\]\.RFW\.q_wire\[24\]
*595 REGF\[18\]\.RFW\.q_wire\[25\]
*596 REGF\[18\]\.RFW\.q_wire\[26\]
*597 REGF\[18\]\.RFW\.q_wire\[27\]
*598 REGF\[18\]\.RFW\.q_wire\[28\]
*599 REGF\[18\]\.RFW\.q_wire\[29\]
*600 REGF\[18\]\.RFW\.q_wire\[2\]
*601 REGF\[18\]\.RFW\.q_wire\[30\]
*602 REGF\[18\]\.RFW\.q_wire\[31\]
*603 REGF\[18\]\.RFW\.q_wire\[3\]
*604 REGF\[18\]\.RFW\.q_wire\[4\]
*605 REGF\[18\]\.RFW\.q_wire\[5\]
*606 REGF\[18\]\.RFW\.q_wire\[6\]
*607 REGF\[18\]\.RFW\.q_wire\[7\]
*608 REGF\[18\]\.RFW\.q_wire\[8\]
*609 REGF\[18\]\.RFW\.q_wire\[9\]
*610 REGF\[18\]\.RFW\.we_wire
*611 REGF\[19\]\.RFW\.GCLK\[0\]
*612 REGF\[19\]\.RFW\.GCLK\[1\]
*613 REGF\[19\]\.RFW\.GCLK\[2\]
*614 REGF\[19\]\.RFW\.GCLK\[3\]
*615 REGF\[19\]\.RFW\.SEL1
*616 REGF\[19\]\.RFW\.SEL1_B\[0\]
*617 REGF\[19\]\.RFW\.SEL1_B\[1\]
*618 REGF\[19\]\.RFW\.SEL1_B\[2\]
*619 REGF\[19\]\.RFW\.SEL1_B\[3\]
*620 REGF\[19\]\.RFW\.SEL2
*621 REGF\[19\]\.RFW\.SEL2_B\[0\]
*622 REGF\[19\]\.RFW\.SEL2_B\[1\]
*623 REGF\[19\]\.RFW\.SEL2_B\[2\]
*624 REGF\[19\]\.RFW\.SEL2_B\[3\]
*625 REGF\[19\]\.RFW\.SELW
*626 REGF\[19\]\.RFW\.q_wire\[0\]
*627 REGF\[19\]\.RFW\.q_wire\[10\]
*628 REGF\[19\]\.RFW\.q_wire\[11\]
*629 REGF\[19\]\.RFW\.q_wire\[12\]
*630 REGF\[19\]\.RFW\.q_wire\[13\]
*631 REGF\[19\]\.RFW\.q_wire\[14\]
*632 REGF\[19\]\.RFW\.q_wire\[15\]
*633 REGF\[19\]\.RFW\.q_wire\[16\]
*634 REGF\[19\]\.RFW\.q_wire\[17\]
*635 REGF\[19\]\.RFW\.q_wire\[18\]
*636 REGF\[19\]\.RFW\.q_wire\[19\]
*637 REGF\[19\]\.RFW\.q_wire\[1\]
*638 REGF\[19\]\.RFW\.q_wire\[20\]
*639 REGF\[19\]\.RFW\.q_wire\[21\]
*640 REGF\[19\]\.RFW\.q_wire\[22\]
*641 REGF\[19\]\.RFW\.q_wire\[23\]
*642 REGF\[19\]\.RFW\.q_wire\[24\]
*643 REGF\[19\]\.RFW\.q_wire\[25\]
*644 REGF\[19\]\.RFW\.q_wire\[26\]
*645 REGF\[19\]\.RFW\.q_wire\[27\]
*646 REGF\[19\]\.RFW\.q_wire\[28\]
*647 REGF\[19\]\.RFW\.q_wire\[29\]
*648 REGF\[19\]\.RFW\.q_wire\[2\]
*649 REGF\[19\]\.RFW\.q_wire\[30\]
*650 REGF\[19\]\.RFW\.q_wire\[31\]
*651 REGF\[19\]\.RFW\.q_wire\[3\]
*652 REGF\[19\]\.RFW\.q_wire\[4\]
*653 REGF\[19\]\.RFW\.q_wire\[5\]
*654 REGF\[19\]\.RFW\.q_wire\[6\]
*655 REGF\[19\]\.RFW\.q_wire\[7\]
*656 REGF\[19\]\.RFW\.q_wire\[8\]
*657 REGF\[19\]\.RFW\.q_wire\[9\]
*658 REGF\[19\]\.RFW\.we_wire
*659 REGF\[1\]\.RFW\.GCLK\[0\]
*660 REGF\[1\]\.RFW\.GCLK\[1\]
*661 REGF\[1\]\.RFW\.GCLK\[2\]
*662 REGF\[1\]\.RFW\.GCLK\[3\]
*663 REGF\[1\]\.RFW\.SEL1
*664 REGF\[1\]\.RFW\.SEL1_B\[0\]
*665 REGF\[1\]\.RFW\.SEL1_B\[1\]
*666 REGF\[1\]\.RFW\.SEL1_B\[2\]
*667 REGF\[1\]\.RFW\.SEL1_B\[3\]
*668 REGF\[1\]\.RFW\.SEL2
*669 REGF\[1\]\.RFW\.SEL2_B\[0\]
*670 REGF\[1\]\.RFW\.SEL2_B\[1\]
*671 REGF\[1\]\.RFW\.SEL2_B\[2\]
*672 REGF\[1\]\.RFW\.SEL2_B\[3\]
*673 REGF\[1\]\.RFW\.SELW
*674 REGF\[1\]\.RFW\.q_wire\[0\]
*675 REGF\[1\]\.RFW\.q_wire\[10\]
*676 REGF\[1\]\.RFW\.q_wire\[11\]
*677 REGF\[1\]\.RFW\.q_wire\[12\]
*678 REGF\[1\]\.RFW\.q_wire\[13\]
*679 REGF\[1\]\.RFW\.q_wire\[14\]
*680 REGF\[1\]\.RFW\.q_wire\[15\]
*681 REGF\[1\]\.RFW\.q_wire\[16\]
*682 REGF\[1\]\.RFW\.q_wire\[17\]
*683 REGF\[1\]\.RFW\.q_wire\[18\]
*684 REGF\[1\]\.RFW\.q_wire\[19\]
*685 REGF\[1\]\.RFW\.q_wire\[1\]
*686 REGF\[1\]\.RFW\.q_wire\[20\]
*687 REGF\[1\]\.RFW\.q_wire\[21\]
*688 REGF\[1\]\.RFW\.q_wire\[22\]
*689 REGF\[1\]\.RFW\.q_wire\[23\]
*690 REGF\[1\]\.RFW\.q_wire\[24\]
*691 REGF\[1\]\.RFW\.q_wire\[25\]
*692 REGF\[1\]\.RFW\.q_wire\[26\]
*693 REGF\[1\]\.RFW\.q_wire\[27\]
*694 REGF\[1\]\.RFW\.q_wire\[28\]
*695 REGF\[1\]\.RFW\.q_wire\[29\]
*696 REGF\[1\]\.RFW\.q_wire\[2\]
*697 REGF\[1\]\.RFW\.q_wire\[30\]
*698 REGF\[1\]\.RFW\.q_wire\[31\]
*699 REGF\[1\]\.RFW\.q_wire\[3\]
*700 REGF\[1\]\.RFW\.q_wire\[4\]
*701 REGF\[1\]\.RFW\.q_wire\[5\]
*702 REGF\[1\]\.RFW\.q_wire\[6\]
*703 REGF\[1\]\.RFW\.q_wire\[7\]
*704 REGF\[1\]\.RFW\.q_wire\[8\]
*705 REGF\[1\]\.RFW\.q_wire\[9\]
*706 REGF\[1\]\.RFW\.we_wire
*707 REGF\[20\]\.RFW\.GCLK\[0\]
*708 REGF\[20\]\.RFW\.GCLK\[1\]
*709 REGF\[20\]\.RFW\.GCLK\[2\]
*710 REGF\[20\]\.RFW\.GCLK\[3\]
*711 REGF\[20\]\.RFW\.SEL1
*712 REGF\[20\]\.RFW\.SEL1_B\[0\]
*713 REGF\[20\]\.RFW\.SEL1_B\[1\]
*714 REGF\[20\]\.RFW\.SEL1_B\[2\]
*715 REGF\[20\]\.RFW\.SEL1_B\[3\]
*716 REGF\[20\]\.RFW\.SEL2
*717 REGF\[20\]\.RFW\.SEL2_B\[0\]
*718 REGF\[20\]\.RFW\.SEL2_B\[1\]
*719 REGF\[20\]\.RFW\.SEL2_B\[2\]
*720 REGF\[20\]\.RFW\.SEL2_B\[3\]
*721 REGF\[20\]\.RFW\.SELW
*722 REGF\[20\]\.RFW\.q_wire\[0\]
*723 REGF\[20\]\.RFW\.q_wire\[10\]
*724 REGF\[20\]\.RFW\.q_wire\[11\]
*725 REGF\[20\]\.RFW\.q_wire\[12\]
*726 REGF\[20\]\.RFW\.q_wire\[13\]
*727 REGF\[20\]\.RFW\.q_wire\[14\]
*728 REGF\[20\]\.RFW\.q_wire\[15\]
*729 REGF\[20\]\.RFW\.q_wire\[16\]
*730 REGF\[20\]\.RFW\.q_wire\[17\]
*731 REGF\[20\]\.RFW\.q_wire\[18\]
*732 REGF\[20\]\.RFW\.q_wire\[19\]
*733 REGF\[20\]\.RFW\.q_wire\[1\]
*734 REGF\[20\]\.RFW\.q_wire\[20\]
*735 REGF\[20\]\.RFW\.q_wire\[21\]
*736 REGF\[20\]\.RFW\.q_wire\[22\]
*737 REGF\[20\]\.RFW\.q_wire\[23\]
*738 REGF\[20\]\.RFW\.q_wire\[24\]
*739 REGF\[20\]\.RFW\.q_wire\[25\]
*740 REGF\[20\]\.RFW\.q_wire\[26\]
*741 REGF\[20\]\.RFW\.q_wire\[27\]
*742 REGF\[20\]\.RFW\.q_wire\[28\]
*743 REGF\[20\]\.RFW\.q_wire\[29\]
*744 REGF\[20\]\.RFW\.q_wire\[2\]
*745 REGF\[20\]\.RFW\.q_wire\[30\]
*746 REGF\[20\]\.RFW\.q_wire\[31\]
*747 REGF\[20\]\.RFW\.q_wire\[3\]
*748 REGF\[20\]\.RFW\.q_wire\[4\]
*749 REGF\[20\]\.RFW\.q_wire\[5\]
*750 REGF\[20\]\.RFW\.q_wire\[6\]
*751 REGF\[20\]\.RFW\.q_wire\[7\]
*752 REGF\[20\]\.RFW\.q_wire\[8\]
*753 REGF\[20\]\.RFW\.q_wire\[9\]
*754 REGF\[20\]\.RFW\.we_wire
*755 REGF\[21\]\.RFW\.GCLK\[0\]
*756 REGF\[21\]\.RFW\.GCLK\[1\]
*757 REGF\[21\]\.RFW\.GCLK\[2\]
*758 REGF\[21\]\.RFW\.GCLK\[3\]
*759 REGF\[21\]\.RFW\.SEL1
*760 REGF\[21\]\.RFW\.SEL1_B\[0\]
*761 REGF\[21\]\.RFW\.SEL1_B\[1\]
*762 REGF\[21\]\.RFW\.SEL1_B\[2\]
*763 REGF\[21\]\.RFW\.SEL1_B\[3\]
*764 REGF\[21\]\.RFW\.SEL2
*765 REGF\[21\]\.RFW\.SEL2_B\[0\]
*766 REGF\[21\]\.RFW\.SEL2_B\[1\]
*767 REGF\[21\]\.RFW\.SEL2_B\[2\]
*768 REGF\[21\]\.RFW\.SEL2_B\[3\]
*769 REGF\[21\]\.RFW\.SELW
*770 REGF\[21\]\.RFW\.q_wire\[0\]
*771 REGF\[21\]\.RFW\.q_wire\[10\]
*772 REGF\[21\]\.RFW\.q_wire\[11\]
*773 REGF\[21\]\.RFW\.q_wire\[12\]
*774 REGF\[21\]\.RFW\.q_wire\[13\]
*775 REGF\[21\]\.RFW\.q_wire\[14\]
*776 REGF\[21\]\.RFW\.q_wire\[15\]
*777 REGF\[21\]\.RFW\.q_wire\[16\]
*778 REGF\[21\]\.RFW\.q_wire\[17\]
*779 REGF\[21\]\.RFW\.q_wire\[18\]
*780 REGF\[21\]\.RFW\.q_wire\[19\]
*781 REGF\[21\]\.RFW\.q_wire\[1\]
*782 REGF\[21\]\.RFW\.q_wire\[20\]
*783 REGF\[21\]\.RFW\.q_wire\[21\]
*784 REGF\[21\]\.RFW\.q_wire\[22\]
*785 REGF\[21\]\.RFW\.q_wire\[23\]
*786 REGF\[21\]\.RFW\.q_wire\[24\]
*787 REGF\[21\]\.RFW\.q_wire\[25\]
*788 REGF\[21\]\.RFW\.q_wire\[26\]
*789 REGF\[21\]\.RFW\.q_wire\[27\]
*790 REGF\[21\]\.RFW\.q_wire\[28\]
*791 REGF\[21\]\.RFW\.q_wire\[29\]
*792 REGF\[21\]\.RFW\.q_wire\[2\]
*793 REGF\[21\]\.RFW\.q_wire\[30\]
*794 REGF\[21\]\.RFW\.q_wire\[31\]
*795 REGF\[21\]\.RFW\.q_wire\[3\]
*796 REGF\[21\]\.RFW\.q_wire\[4\]
*797 REGF\[21\]\.RFW\.q_wire\[5\]
*798 REGF\[21\]\.RFW\.q_wire\[6\]
*799 REGF\[21\]\.RFW\.q_wire\[7\]
*800 REGF\[21\]\.RFW\.q_wire\[8\]
*801 REGF\[21\]\.RFW\.q_wire\[9\]
*802 REGF\[21\]\.RFW\.we_wire
*803 REGF\[22\]\.RFW\.GCLK\[0\]
*804 REGF\[22\]\.RFW\.GCLK\[1\]
*805 REGF\[22\]\.RFW\.GCLK\[2\]
*806 REGF\[22\]\.RFW\.GCLK\[3\]
*807 REGF\[22\]\.RFW\.SEL1
*808 REGF\[22\]\.RFW\.SEL1_B\[0\]
*809 REGF\[22\]\.RFW\.SEL1_B\[1\]
*810 REGF\[22\]\.RFW\.SEL1_B\[2\]
*811 REGF\[22\]\.RFW\.SEL1_B\[3\]
*812 REGF\[22\]\.RFW\.SEL2
*813 REGF\[22\]\.RFW\.SEL2_B\[0\]
*814 REGF\[22\]\.RFW\.SEL2_B\[1\]
*815 REGF\[22\]\.RFW\.SEL2_B\[2\]
*816 REGF\[22\]\.RFW\.SEL2_B\[3\]
*817 REGF\[22\]\.RFW\.SELW
*818 REGF\[22\]\.RFW\.q_wire\[0\]
*819 REGF\[22\]\.RFW\.q_wire\[10\]
*820 REGF\[22\]\.RFW\.q_wire\[11\]
*821 REGF\[22\]\.RFW\.q_wire\[12\]
*822 REGF\[22\]\.RFW\.q_wire\[13\]
*823 REGF\[22\]\.RFW\.q_wire\[14\]
*824 REGF\[22\]\.RFW\.q_wire\[15\]
*825 REGF\[22\]\.RFW\.q_wire\[16\]
*826 REGF\[22\]\.RFW\.q_wire\[17\]
*827 REGF\[22\]\.RFW\.q_wire\[18\]
*828 REGF\[22\]\.RFW\.q_wire\[19\]
*829 REGF\[22\]\.RFW\.q_wire\[1\]
*830 REGF\[22\]\.RFW\.q_wire\[20\]
*831 REGF\[22\]\.RFW\.q_wire\[21\]
*832 REGF\[22\]\.RFW\.q_wire\[22\]
*833 REGF\[22\]\.RFW\.q_wire\[23\]
*834 REGF\[22\]\.RFW\.q_wire\[24\]
*835 REGF\[22\]\.RFW\.q_wire\[25\]
*836 REGF\[22\]\.RFW\.q_wire\[26\]
*837 REGF\[22\]\.RFW\.q_wire\[27\]
*838 REGF\[22\]\.RFW\.q_wire\[28\]
*839 REGF\[22\]\.RFW\.q_wire\[29\]
*840 REGF\[22\]\.RFW\.q_wire\[2\]
*841 REGF\[22\]\.RFW\.q_wire\[30\]
*842 REGF\[22\]\.RFW\.q_wire\[31\]
*843 REGF\[22\]\.RFW\.q_wire\[3\]
*844 REGF\[22\]\.RFW\.q_wire\[4\]
*845 REGF\[22\]\.RFW\.q_wire\[5\]
*846 REGF\[22\]\.RFW\.q_wire\[6\]
*847 REGF\[22\]\.RFW\.q_wire\[7\]
*848 REGF\[22\]\.RFW\.q_wire\[8\]
*849 REGF\[22\]\.RFW\.q_wire\[9\]
*850 REGF\[22\]\.RFW\.we_wire
*851 REGF\[23\]\.RFW\.GCLK\[0\]
*852 REGF\[23\]\.RFW\.GCLK\[1\]
*853 REGF\[23\]\.RFW\.GCLK\[2\]
*854 REGF\[23\]\.RFW\.GCLK\[3\]
*855 REGF\[23\]\.RFW\.SEL1
*856 REGF\[23\]\.RFW\.SEL1_B\[0\]
*857 REGF\[23\]\.RFW\.SEL1_B\[1\]
*858 REGF\[23\]\.RFW\.SEL1_B\[2\]
*859 REGF\[23\]\.RFW\.SEL1_B\[3\]
*860 REGF\[23\]\.RFW\.SEL2
*861 REGF\[23\]\.RFW\.SEL2_B\[0\]
*862 REGF\[23\]\.RFW\.SEL2_B\[1\]
*863 REGF\[23\]\.RFW\.SEL2_B\[2\]
*864 REGF\[23\]\.RFW\.SEL2_B\[3\]
*865 REGF\[23\]\.RFW\.SELW
*866 REGF\[23\]\.RFW\.q_wire\[0\]
*867 REGF\[23\]\.RFW\.q_wire\[10\]
*868 REGF\[23\]\.RFW\.q_wire\[11\]
*869 REGF\[23\]\.RFW\.q_wire\[12\]
*870 REGF\[23\]\.RFW\.q_wire\[13\]
*871 REGF\[23\]\.RFW\.q_wire\[14\]
*872 REGF\[23\]\.RFW\.q_wire\[15\]
*873 REGF\[23\]\.RFW\.q_wire\[16\]
*874 REGF\[23\]\.RFW\.q_wire\[17\]
*875 REGF\[23\]\.RFW\.q_wire\[18\]
*876 REGF\[23\]\.RFW\.q_wire\[19\]
*877 REGF\[23\]\.RFW\.q_wire\[1\]
*878 REGF\[23\]\.RFW\.q_wire\[20\]
*879 REGF\[23\]\.RFW\.q_wire\[21\]
*880 REGF\[23\]\.RFW\.q_wire\[22\]
*881 REGF\[23\]\.RFW\.q_wire\[23\]
*882 REGF\[23\]\.RFW\.q_wire\[24\]
*883 REGF\[23\]\.RFW\.q_wire\[25\]
*884 REGF\[23\]\.RFW\.q_wire\[26\]
*885 REGF\[23\]\.RFW\.q_wire\[27\]
*886 REGF\[23\]\.RFW\.q_wire\[28\]
*887 REGF\[23\]\.RFW\.q_wire\[29\]
*888 REGF\[23\]\.RFW\.q_wire\[2\]
*889 REGF\[23\]\.RFW\.q_wire\[30\]
*890 REGF\[23\]\.RFW\.q_wire\[31\]
*891 REGF\[23\]\.RFW\.q_wire\[3\]
*892 REGF\[23\]\.RFW\.q_wire\[4\]
*893 REGF\[23\]\.RFW\.q_wire\[5\]
*894 REGF\[23\]\.RFW\.q_wire\[6\]
*895 REGF\[23\]\.RFW\.q_wire\[7\]
*896 REGF\[23\]\.RFW\.q_wire\[8\]
*897 REGF\[23\]\.RFW\.q_wire\[9\]
*898 REGF\[23\]\.RFW\.we_wire
*899 REGF\[24\]\.RFW\.GCLK\[0\]
*900 REGF\[24\]\.RFW\.GCLK\[1\]
*901 REGF\[24\]\.RFW\.GCLK\[2\]
*902 REGF\[24\]\.RFW\.GCLK\[3\]
*903 REGF\[24\]\.RFW\.SEL1
*904 REGF\[24\]\.RFW\.SEL1_B\[0\]
*905 REGF\[24\]\.RFW\.SEL1_B\[1\]
*906 REGF\[24\]\.RFW\.SEL1_B\[2\]
*907 REGF\[24\]\.RFW\.SEL1_B\[3\]
*908 REGF\[24\]\.RFW\.SEL2
*909 REGF\[24\]\.RFW\.SEL2_B\[0\]
*910 REGF\[24\]\.RFW\.SEL2_B\[1\]
*911 REGF\[24\]\.RFW\.SEL2_B\[2\]
*912 REGF\[24\]\.RFW\.SEL2_B\[3\]
*913 REGF\[24\]\.RFW\.SELW
*914 REGF\[24\]\.RFW\.q_wire\[0\]
*915 REGF\[24\]\.RFW\.q_wire\[10\]
*916 REGF\[24\]\.RFW\.q_wire\[11\]
*917 REGF\[24\]\.RFW\.q_wire\[12\]
*918 REGF\[24\]\.RFW\.q_wire\[13\]
*919 REGF\[24\]\.RFW\.q_wire\[14\]
*920 REGF\[24\]\.RFW\.q_wire\[15\]
*921 REGF\[24\]\.RFW\.q_wire\[16\]
*922 REGF\[24\]\.RFW\.q_wire\[17\]
*923 REGF\[24\]\.RFW\.q_wire\[18\]
*924 REGF\[24\]\.RFW\.q_wire\[19\]
*925 REGF\[24\]\.RFW\.q_wire\[1\]
*926 REGF\[24\]\.RFW\.q_wire\[20\]
*927 REGF\[24\]\.RFW\.q_wire\[21\]
*928 REGF\[24\]\.RFW\.q_wire\[22\]
*929 REGF\[24\]\.RFW\.q_wire\[23\]
*930 REGF\[24\]\.RFW\.q_wire\[24\]
*931 REGF\[24\]\.RFW\.q_wire\[25\]
*932 REGF\[24\]\.RFW\.q_wire\[26\]
*933 REGF\[24\]\.RFW\.q_wire\[27\]
*934 REGF\[24\]\.RFW\.q_wire\[28\]
*935 REGF\[24\]\.RFW\.q_wire\[29\]
*936 REGF\[24\]\.RFW\.q_wire\[2\]
*937 REGF\[24\]\.RFW\.q_wire\[30\]
*938 REGF\[24\]\.RFW\.q_wire\[31\]
*939 REGF\[24\]\.RFW\.q_wire\[3\]
*940 REGF\[24\]\.RFW\.q_wire\[4\]
*941 REGF\[24\]\.RFW\.q_wire\[5\]
*942 REGF\[24\]\.RFW\.q_wire\[6\]
*943 REGF\[24\]\.RFW\.q_wire\[7\]
*944 REGF\[24\]\.RFW\.q_wire\[8\]
*945 REGF\[24\]\.RFW\.q_wire\[9\]
*946 REGF\[24\]\.RFW\.we_wire
*947 REGF\[25\]\.RFW\.GCLK\[0\]
*948 REGF\[25\]\.RFW\.GCLK\[1\]
*949 REGF\[25\]\.RFW\.GCLK\[2\]
*950 REGF\[25\]\.RFW\.GCLK\[3\]
*951 REGF\[25\]\.RFW\.SEL1
*952 REGF\[25\]\.RFW\.SEL1_B\[0\]
*953 REGF\[25\]\.RFW\.SEL1_B\[1\]
*954 REGF\[25\]\.RFW\.SEL1_B\[2\]
*955 REGF\[25\]\.RFW\.SEL1_B\[3\]
*956 REGF\[25\]\.RFW\.SEL2
*957 REGF\[25\]\.RFW\.SEL2_B\[0\]
*958 REGF\[25\]\.RFW\.SEL2_B\[1\]
*959 REGF\[25\]\.RFW\.SEL2_B\[2\]
*960 REGF\[25\]\.RFW\.SEL2_B\[3\]
*961 REGF\[25\]\.RFW\.SELW
*962 REGF\[25\]\.RFW\.q_wire\[0\]
*963 REGF\[25\]\.RFW\.q_wire\[10\]
*964 REGF\[25\]\.RFW\.q_wire\[11\]
*965 REGF\[25\]\.RFW\.q_wire\[12\]
*966 REGF\[25\]\.RFW\.q_wire\[13\]
*967 REGF\[25\]\.RFW\.q_wire\[14\]
*968 REGF\[25\]\.RFW\.q_wire\[15\]
*969 REGF\[25\]\.RFW\.q_wire\[16\]
*970 REGF\[25\]\.RFW\.q_wire\[17\]
*971 REGF\[25\]\.RFW\.q_wire\[18\]
*972 REGF\[25\]\.RFW\.q_wire\[19\]
*973 REGF\[25\]\.RFW\.q_wire\[1\]
*974 REGF\[25\]\.RFW\.q_wire\[20\]
*975 REGF\[25\]\.RFW\.q_wire\[21\]
*976 REGF\[25\]\.RFW\.q_wire\[22\]
*977 REGF\[25\]\.RFW\.q_wire\[23\]
*978 REGF\[25\]\.RFW\.q_wire\[24\]
*979 REGF\[25\]\.RFW\.q_wire\[25\]
*980 REGF\[25\]\.RFW\.q_wire\[26\]