* NGSPICE file created from DFFRF_2R1W.ext - technology: sky130A

* Black-box entry subcircuit for sky130_fd_sc_hd__tapvpwrvgnd_1 abstract view
.subckt sky130_fd_sc_hd__tapvpwrvgnd_1 VGND VPWR
.ends

* Black-box entry subcircuit for sky130_fd_sc_hd__dfxtp_1 abstract view
.subckt sky130_fd_sc_hd__dfxtp_1 CLK D VGND VNB VPB VPWR Q
.ends

* Black-box entry subcircuit for sky130_fd_sc_hd__decap_12 abstract view
.subckt sky130_fd_sc_hd__decap_12 VGND VNB VPB VPWR
.ends

* Black-box entry subcircuit for sky130_fd_sc_hd__ebufn_2 abstract view
.subckt sky130_fd_sc_hd__ebufn_2 A TE_B VGND VNB VPB VPWR Z
.ends

* Black-box entry subcircuit for sky130_fd_sc_hd__fill_2 abstract view
.subckt sky130_fd_sc_hd__fill_2 VGND VNB VPB VPWR
.ends

* Black-box entry subcircuit for sky130_fd_sc_hd__and3b_4 abstract view
.subckt sky130_fd_sc_hd__and3b_4 A_N B C VGND VNB VPB VPWR X
.ends

* Black-box entry subcircuit for sky130_fd_sc_hd__clkbuf_2 abstract view
.subckt sky130_fd_sc_hd__clkbuf_2 A VGND VNB VPB VPWR X
.ends

* Black-box entry subcircuit for sky130_fd_sc_hd__dlclkp_1 abstract view
.subckt sky130_fd_sc_hd__dlclkp_1 CLK GATE VGND VNB VPB VPWR GCLK
.ends

* Black-box entry subcircuit for sky130_fd_sc_hd__decap_8 abstract view
.subckt sky130_fd_sc_hd__decap_8 VGND VNB VPB VPWR
.ends

* Black-box entry subcircuit for sky130_fd_sc_hd__inv_4 abstract view
.subckt sky130_fd_sc_hd__inv_4 A VGND VNB VPB VPWR Y
.ends

* Black-box entry subcircuit for sky130_fd_sc_hd__decap_4 abstract view
.subckt sky130_fd_sc_hd__decap_4 VGND VNB VPB VPWR
.ends

* Black-box entry subcircuit for sky130_fd_sc_hd__conb_1 abstract view
.subckt sky130_fd_sc_hd__conb_1 VGND VNB VPB VPWR HI LO
.ends

* Black-box entry subcircuit for sky130_fd_sc_hd__and2_1 abstract view
.subckt sky130_fd_sc_hd__and2_1 A B VGND VNB VPB VPWR X
.ends

* Black-box entry subcircuit for sky130_fd_sc_hd__and4_2 abstract view
.subckt sky130_fd_sc_hd__and4_2 A B C D VGND VNB VPB VPWR X
.ends

* Black-box entry subcircuit for sky130_fd_sc_hd__and3_4 abstract view
.subckt sky130_fd_sc_hd__and3_4 A B C VGND VNB VPB VPWR X
.ends

* Black-box entry subcircuit for sky130_fd_sc_hd__decap_3 abstract view
.subckt sky130_fd_sc_hd__decap_3 VGND VNB VPB VPWR
.ends

* Black-box entry subcircuit for sky130_fd_sc_hd__nor4b_2 abstract view
.subckt sky130_fd_sc_hd__nor4b_2 A B C D_N VGND VNB VPB VPWR Y
.ends

* Black-box entry subcircuit for sky130_fd_sc_hd__and4bb_2 abstract view
.subckt sky130_fd_sc_hd__and4bb_2 A_N B_N C D VGND VNB VPB VPWR X
.ends

* Black-box entry subcircuit for sky130_fd_sc_hd__decap_6 abstract view
.subckt sky130_fd_sc_hd__decap_6 VGND VNB VPB VPWR
.ends

* Black-box entry subcircuit for sky130_fd_sc_hd__and4b_2 abstract view
.subckt sky130_fd_sc_hd__and4b_2 A_N B C D VGND VNB VPB VPWR X
.ends

* Black-box entry subcircuit for sky130_fd_sc_hd__nor3b_4 abstract view
.subckt sky130_fd_sc_hd__nor3b_4 A B C_N VGND VNB VPB VPWR Y
.ends

.subckt DFFRF_2R1W CLK DA[0] DA[10] DA[11] DA[12] DA[13] DA[14] DA[15] DA[16] DA[17]
+ DA[18] DA[19] DA[1] DA[20] DA[21] DA[22] DA[23] DA[24] DA[25] DA[26] DA[27] DA[28]
+ DA[29] DA[2] DA[30] DA[31] DA[3] DA[4] DA[5] DA[6] DA[7] DA[8] DA[9] DB[0] DB[10]
+ DB[11] DB[12] DB[13] DB[14] DB[15] DB[16] DB[17] DB[18] DB[19] DB[1] DB[20] DB[21]
+ DB[22] DB[23] DB[24] DB[25] DB[26] DB[27] DB[28] DB[29] DB[2] DB[30] DB[31] DB[3]
+ DB[4] DB[5] DB[6] DB[7] DB[8] DB[9] DW[0] DW[10] DW[11] DW[12] DW[13] DW[14] DW[15]
+ DW[16] DW[17] DW[18] DW[19] DW[1] DW[20] DW[21] DW[22] DW[23] DW[24] DW[25] DW[26]
+ DW[27] DW[28] DW[29] DW[2] DW[30] DW[31] DW[3] DW[4] DW[5] DW[6] DW[7] DW[8] DW[9]
+ RA[0] RA[1] RA[2] RA[3] RA[4] RB[0] RB[1] RB[2] RB[3] RB[4] RW[0] RW[1] RW[2] RW[3]
+ RW[4] VGND VPWR WE
Xtap_24_13 VGND VPWR sky130_fd_sc_hd__tapvpwrvgnd_1
Xtap_40_12 VGND VPWR sky130_fd_sc_hd__tapvpwrvgnd_1
XREGF\[21\].RFW.BIT\[12\].FF REGF\[21\].RFW.CG\[1\]/GCLK DW[12] VGND VGND VPWR VPWR
+ REGF\[21\].RFW.BIT\[12\].FF/Q sky130_fd_sc_hd__dfxtp_1
Xfill_12_12 VGND VPWR sky130_fd_sc_hd__tapvpwrvgnd_1
Xfill_12_23 VGND VGND VPWR VPWR sky130_fd_sc_hd__decap_12
Xfill_12_34 VGND VPWR sky130_fd_sc_hd__tapvpwrvgnd_1
XREGF\[10\].RFW.BIT\[13\].OBUF2 REGF\[10\].RFW.BIT\[13\].FF/Q REGF\[10\].RFW.INV2\[1\]/Y
+ VGND VGND VPWR VPWR DB[13] sky130_fd_sc_hd__ebufn_2
Xtap_22_0 VGND VPWR sky130_fd_sc_hd__tapvpwrvgnd_1
Xfill_37_20 VGND VPWR sky130_fd_sc_hd__tapvpwrvgnd_1
Xfill_37_31 VGND VPWR sky130_fd_sc_hd__tapvpwrvgnd_1
Xfill_37_42 VGND VPWR sky130_fd_sc_hd__tapvpwrvgnd_1
Xfill_37_53 VGND VPWR sky130_fd_sc_hd__tapvpwrvgnd_1
Xfill_37_64 VGND VPWR sky130_fd_sc_hd__tapvpwrvgnd_1
XREGF\[8\].RFW.BIT\[28\].OBUF1 REGF\[8\].RFW.BIT\[28\].FF/Q REGF\[8\].RFW.INV1\[3\]/Y
+ VGND VGND VPWR VPWR DA[28] sky130_fd_sc_hd__ebufn_2
XREGF\[10\].RFW.BIT\[25\].FF REGF\[10\].RFW.CG\[3\]/GCLK DW[25] VGND VGND VPWR VPWR
+ REGF\[10\].RFW.BIT\[25\].FF/Q sky130_fd_sc_hd__dfxtp_1
Xfill_53_30 VGND VPWR sky130_fd_sc_hd__tapvpwrvgnd_1
Xfill_0_14 VGND VPWR sky130_fd_sc_hd__tapvpwrvgnd_1
Xfill_53_63 VGND VGND VPWR VPWR sky130_fd_sc_hd__decap_12
Xfill_53_52 VGND VGND VPWR VPWR sky130_fd_sc_hd__fill_2
Xfill_53_41 VGND VPWR sky130_fd_sc_hd__tapvpwrvgnd_1
Xfill_9_34 VGND VGND VPWR VPWR sky130_fd_sc_hd__fill_2
Xfill_9_23 VGND VPWR sky130_fd_sc_hd__tapvpwrvgnd_1
Xfill_9_12 VGND VGND VPWR VPWR sky130_fd_sc_hd__fill_2
XDEC2.D.AND2 RW[3] RW[4] DEC2.TIE/HI VGND VGND VPWR VPWR DEC2.D.AND2/X sky130_fd_sc_hd__and3b_4
XREGF\[26\].RFW.BIT\[23\].OBUF1 REGF\[26\].RFW.BIT\[23\].FF/Q REGF\[26\].RFW.INV1\[2\]/Y
+ VGND VGND VPWR VPWR DA[23] sky130_fd_sc_hd__ebufn_2
Xfill_9_56 VGND VPWR sky130_fd_sc_hd__tapvpwrvgnd_1
Xfill_9_45 VGND VGND VPWR VPWR sky130_fd_sc_hd__fill_2
XREGF\[31\].RFW.BIT\[12\].OBUF1 REGF\[31\].RFW.BIT\[12\].FF/Q REGF\[31\].RFW.INV1\[1\]/Y
+ VGND VGND VPWR VPWR DA[12] sky130_fd_sc_hd__ebufn_2
Xfill_50_4 VGND VPWR sky130_fd_sc_hd__tapvpwrvgnd_1
Xfill_43_3 VGND VPWR sky130_fd_sc_hd__tapvpwrvgnd_1
Xfill_36_2 VGND VGND VPWR VPWR sky130_fd_sc_hd__decap_12
XREGF\[21\].RFW.BIT\[1\].FF REGF\[21\].RFW.CG\[0\]/GCLK DW[1] VGND VGND VPWR VPWR
+ REGF\[21\].RFW.BIT\[1\].FF/Q sky130_fd_sc_hd__dfxtp_1
Xfill_29_1 VGND VGND VPWR VPWR sky130_fd_sc_hd__decap_12
Xtap_58_9 VGND VPWR sky130_fd_sc_hd__tapvpwrvgnd_1
Xfill_58_19 VGND VPWR sky130_fd_sc_hd__tapvpwrvgnd_1
XREGF\[20\].RFW.BIT\[3\].FF REGF\[20\].RFW.CG\[0\]/GCLK DW[3] VGND VGND VPWR VPWR
+ REGF\[20\].RFW.BIT\[3\].FF/Q sky130_fd_sc_hd__dfxtp_1
XDEC0.D0.ABUF\[2\] RA[2] VGND VGND VPWR VPWR DEC0.D0.AND7/C sky130_fd_sc_hd__clkbuf_2
XREGF\[22\].RFW.BIT\[26\].OBUF1 REGF\[22\].RFW.BIT\[26\].FF/Q REGF\[22\].RFW.INV1\[3\]/Y
+ VGND VGND VPWR VPWR DA[26] sky130_fd_sc_hd__ebufn_2
XREGF\[26\].RFW.CG\[2\] CLK REGF\[26\].RFW.CGAND/X VGND VGND VPWR VPWR REGF\[26\].RFW.CG\[2\]/GCLK
+ sky130_fd_sc_hd__dlclkp_1
Xtap_1_5 VGND VPWR sky130_fd_sc_hd__tapvpwrvgnd_1
XREGF\[7\].RFW.BIT\[16\].OBUF1 REGF\[7\].RFW.BIT\[16\].FF/Q REGF\[7\].RFW.INV1\[2\]/Y
+ VGND VGND VPWR VPWR DA[16] sky130_fd_sc_hd__ebufn_2
XREGF\[5\].RFW.BIT\[18\].FF REGF\[5\].RFW.CG\[2\]/GCLK DW[18] VGND VGND VPWR VPWR
+ REGF\[5\].RFW.BIT\[18\].FF/Q sky130_fd_sc_hd__dfxtp_1
XREGF\[1\].RFW.BIT\[20\].FF REGF\[1\].RFW.CG\[2\]/GCLK DW[20] VGND VGND VPWR VPWR
+ REGF\[1\].RFW.BIT\[20\].FF/Q sky130_fd_sc_hd__dfxtp_1
Xfill_23_11 VGND VPWR sky130_fd_sc_hd__tapvpwrvgnd_1
Xfill_23_22 VGND VGND VPWR VPWR sky130_fd_sc_hd__fill_2
Xfill_23_33 VGND VPWR sky130_fd_sc_hd__tapvpwrvgnd_1
Xfill_23_44 VGND VPWR sky130_fd_sc_hd__tapvpwrvgnd_1
Xfill_23_55 VGND VGND VPWR VPWR sky130_fd_sc_hd__fill_2
XREGF\[25\].RFW.BIT\[11\].OBUF1 REGF\[25\].RFW.BIT\[11\].FF/Q REGF\[25\].RFW.INV1\[1\]/Y
+ VGND VGND VPWR VPWR DA[11] sky130_fd_sc_hd__ebufn_2
Xfill_48_30 VGND VGND VPWR VPWR sky130_fd_sc_hd__decap_8
Xfill_48_41 VGND VGND VPWR VPWR sky130_fd_sc_hd__fill_2
XREGF\[7\].RFW.INV2\[3\] DEC1.D0.AND7/X VGND VGND VPWR VPWR REGF\[7\].RFW.INV2\[3\]/Y
+ sky130_fd_sc_hd__inv_4
XREGF\[5\].RFW.BIT\[0\].FF REGF\[5\].RFW.CG\[0\]/GCLK DW[0] VGND VGND VPWR VPWR REGF\[5\].RFW.BIT\[0\].FF/Q
+ sky130_fd_sc_hd__dfxtp_1
XREGF\[26\].RFW.BIT\[27\].OBUF2 REGF\[26\].RFW.BIT\[27\].FF/Q REGF\[26\].RFW.INV2\[3\]/Y
+ VGND VGND VPWR VPWR DB[27] sky130_fd_sc_hd__ebufn_2
Xfill_22_8 VGND VPWR sky130_fd_sc_hd__tapvpwrvgnd_1
Xfill_15_7 VGND VGND VPWR VPWR sky130_fd_sc_hd__fill_2
XREGF\[31\].RFW.BIT\[16\].OBUF2 REGF\[31\].RFW.BIT\[16\].FF/Q REGF\[31\].RFW.INV2\[2\]/Y
+ VGND VGND VPWR VPWR DB[16] sky130_fd_sc_hd__ebufn_2
XREGF\[31\].RFW.BIT\[0\].OBUF1 REGF\[31\].RFW.BIT\[0\].FF/Q REGF\[31\].RFW.INV1\[0\]/Y
+ VGND VGND VPWR VPWR DA[0] sky130_fd_sc_hd__ebufn_2
XREGF\[22\].RFW.BIT\[18\].FF REGF\[22\].RFW.CG\[2\]/GCLK DW[18] VGND VGND VPWR VPWR
+ REGF\[22\].RFW.BIT\[18\].FF/Q sky130_fd_sc_hd__dfxtp_1
XREGF\[3\].RFW.BIT\[19\].OBUF1 REGF\[3\].RFW.BIT\[19\].FF/Q REGF\[3\].RFW.INV1\[2\]/Y
+ VGND VGND VPWR VPWR DA[19] sky130_fd_sc_hd__ebufn_2
XREGF\[11\].RFW.INV2\[0\] DEC1.D1.AND3/X VGND VGND VPWR VPWR REGF\[11\].RFW.INV2\[0\]/Y
+ sky130_fd_sc_hd__inv_4
XREGF\[28\].RFW.BIT\[12\].FF REGF\[28\].RFW.CG\[1\]/GCLK DW[12] VGND VGND VPWR VPWR
+ REGF\[28\].RFW.BIT\[12\].FF/Q sky130_fd_sc_hd__dfxtp_1
XREGF\[16\].RFW.BIT\[25\].OBUF1 REGF\[16\].RFW.BIT\[25\].FF/Q REGF\[16\].RFW.INV1\[3\]/Y
+ VGND VGND VPWR VPWR DA[25] sky130_fd_sc_hd__ebufn_2
XREGF\[29\].RFW.BIT\[12\].OBUF2 REGF\[29\].RFW.BIT\[12\].FF/Q REGF\[29\].RFW.INV2\[1\]/Y
+ VGND VGND VPWR VPWR DB[12] sky130_fd_sc_hd__ebufn_2
XREGF\[27\].RFW.INV2\[1\] DEC1.D3.AND3/X VGND VGND VPWR VPWR REGF\[27\].RFW.INV2\[1\]/Y
+ sky130_fd_sc_hd__inv_4
XREGF\[4\].RFW.BIT\[2\].FF REGF\[4\].RFW.CG\[0\]/GCLK DW[2] VGND VGND VPWR VPWR REGF\[4\].RFW.BIT\[2\].FF/Q
+ sky130_fd_sc_hd__dfxtp_1
XREGF\[21\].RFW.BIT\[14\].OBUF1 REGF\[21\].RFW.BIT\[14\].FF/Q REGF\[21\].RFW.INV1\[1\]/Y
+ VGND VGND VPWR VPWR DA[14] sky130_fd_sc_hd__ebufn_2
Xfill_41_0 VGND VPWR sky130_fd_sc_hd__tapvpwrvgnd_1
XREGF\[19\].RFW.BIT\[10\].OBUF1 REGF\[19\].RFW.BIT\[10\].FF/Q REGF\[19\].RFW.INV1\[1\]/Y
+ VGND VGND VPWR VPWR DA[10] sky130_fd_sc_hd__ebufn_2
XREGF\[17\].RFW.BIT\[25\].FF REGF\[17\].RFW.CG\[3\]/GCLK DW[25] VGND VGND VPWR VPWR
+ REGF\[17\].RFW.BIT\[25\].FF/Q sky130_fd_sc_hd__dfxtp_1
XREGF\[14\].RFW.CG\[2\] CLK REGF\[14\].RFW.CGAND/X VGND VGND VPWR VPWR REGF\[14\].RFW.CG\[2\]/GCLK
+ sky130_fd_sc_hd__dlclkp_1
XREGF\[3\].RFW.BIT\[4\].FF REGF\[3\].RFW.CG\[0\]/GCLK DW[4] VGND VGND VPWR VPWR REGF\[3\].RFW.BIT\[4\].FF/Q
+ sky130_fd_sc_hd__dfxtp_1
Xtap_56_6 VGND VPWR sky130_fd_sc_hd__tapvpwrvgnd_1
Xtap_46_11 VGND VPWR sky130_fd_sc_hd__tapvpwrvgnd_1
XREGF\[12\].RFW.BIT\[28\].OBUF1 REGF\[12\].RFW.BIT\[28\].FF/Q REGF\[12\].RFW.INV1\[3\]/Y
+ VGND VGND VPWR VPWR DA[28] sky130_fd_sc_hd__ebufn_2
Xfill_18_11 VGND VPWR sky130_fd_sc_hd__tapvpwrvgnd_1
XREGF\[25\].RFW.BIT\[15\].OBUF2 REGF\[25\].RFW.BIT\[15\].FF/Q REGF\[25\].RFW.INV2\[1\]/Y
+ VGND VGND VPWR VPWR DB[15] sky130_fd_sc_hd__ebufn_2
Xfill_18_22 VGND VGND VPWR VPWR sky130_fd_sc_hd__decap_12
Xfill_18_33 VGND VPWR sky130_fd_sc_hd__tapvpwrvgnd_1
Xtap_62_10 VGND VPWR sky130_fd_sc_hd__tapvpwrvgnd_1
XREGF\[2\].RFW.BIT\[6\].FF REGF\[2\].RFW.CG\[0\]/GCLK DW[6] VGND VGND VPWR VPWR REGF\[2\].RFW.BIT\[6\].FF/Q
+ sky130_fd_sc_hd__dfxtp_1
XREGF\[31\].RFW.BIT\[7\].FF REGF\[31\].RFW.CG\[0\]/GCLK DW[7] VGND VGND VPWR VPWR
+ REGF\[31\].RFW.BIT\[7\].FF/Q sky130_fd_sc_hd__dfxtp_1
Xfill_34_10 VGND VPWR sky130_fd_sc_hd__tapvpwrvgnd_1
Xfill_34_21 VGND VPWR sky130_fd_sc_hd__tapvpwrvgnd_1
Xfill_34_32 VGND VPWR sky130_fd_sc_hd__tapvpwrvgnd_1
XREGF\[3\].RFW.BIT\[20\].OBUF1 REGF\[3\].RFW.BIT\[20\].FF/Q REGF\[3\].RFW.INV1\[2\]/Y
+ VGND VGND VPWR VPWR DA[20] sky130_fd_sc_hd__ebufn_2
XREGF\[23\].RFW.INV1\[2\] DEC0.D2.AND7/X VGND VGND VPWR VPWR REGF\[23\].RFW.INV1\[2\]/Y
+ sky130_fd_sc_hd__inv_4
Xfill_50_20 VGND VPWR sky130_fd_sc_hd__tapvpwrvgnd_1
Xfill_50_31 VGND VGND VPWR VPWR sky130_fd_sc_hd__fill_2
XREGF\[15\].RFW.BIT\[13\].OBUF1 REGF\[15\].RFW.BIT\[13\].FF/Q REGF\[15\].RFW.INV1\[1\]/Y
+ VGND VGND VPWR VPWR DA[13] sky130_fd_sc_hd__ebufn_2
Xfill_6_13 VGND VGND VPWR VPWR sky130_fd_sc_hd__decap_12
XREGF\[30\].RFW.BIT\[9\].FF REGF\[30\].RFW.CG\[1\]/GCLK DW[9] VGND VGND VPWR VPWR
+ REGF\[30\].RFW.BIT\[9\].FF/Q sky130_fd_sc_hd__dfxtp_1
Xfill_59_62 VGND VGND VPWR VPWR sky130_fd_sc_hd__decap_12
Xfill_59_51 VGND VPWR sky130_fd_sc_hd__tapvpwrvgnd_1
Xfill_59_40 VGND VPWR sky130_fd_sc_hd__tapvpwrvgnd_1
Xfill_6_35 VGND VPWR sky130_fd_sc_hd__tapvpwrvgnd_1
Xfill_6_24 VGND VGND VPWR VPWR sky130_fd_sc_hd__fill_2
XREGF\[1\].RFW.BIT\[8\].FF REGF\[1\].RFW.CG\[1\]/GCLK DW[8] VGND VGND VPWR VPWR REGF\[1\].RFW.BIT\[8\].FF/Q
+ sky130_fd_sc_hd__dfxtp_1
XREGF\[31\].RFW.BIT\[4\].OBUF2 REGF\[31\].RFW.BIT\[4\].FF/Q REGF\[31\].RFW.INV2\[0\]/Y
+ VGND VGND VPWR VPWR DB[4] sky130_fd_sc_hd__ebufn_2
Xgenblk1.RFW0.BIT\[29\].OBUF1 genblk1.RFW0.TIE\[3\]/LO genblk1.RFW0.INV1\[3\]/Y VGND
+ VGND VPWR VPWR DA[29] sky130_fd_sc_hd__ebufn_2
XREGF\[16\].RFW.BIT\[29\].OBUF2 REGF\[16\].RFW.BIT\[29\].FF/Q REGF\[16\].RFW.INV2\[3\]/Y
+ VGND VGND VPWR VPWR DB[29] sky130_fd_sc_hd__ebufn_2
Xfill_20_5 VGND VGND VPWR VPWR sky130_fd_sc_hd__decap_8
Xfill_13_4 VGND VPWR sky130_fd_sc_hd__tapvpwrvgnd_1
XREGF\[2\].RFW.BIT\[26\].FF REGF\[2\].RFW.CG\[3\]/GCLK DW[26] VGND VGND VPWR VPWR
+ REGF\[2\].RFW.BIT\[26\].FF/Q sky130_fd_sc_hd__dfxtp_1
XREGF\[21\].RFW.BIT\[18\].OBUF2 REGF\[21\].RFW.BIT\[18\].FF/Q REGF\[21\].RFW.INV2\[2\]/Y
+ VGND VGND VPWR VPWR DB[18] sky130_fd_sc_hd__ebufn_2
XREGF\[22\].RFW.BIT\[31\].OBUF2 REGF\[22\].RFW.BIT\[31\].FF/Q REGF\[22\].RFW.INV2\[3\]/Y
+ VGND VGND VPWR VPWR DB[31] sky130_fd_sc_hd__ebufn_2
XREGF\[8\].RFW.BIT\[20\].FF REGF\[8\].RFW.CG\[2\]/GCLK DW[20] VGND VGND VPWR VPWR
+ REGF\[8\].RFW.BIT\[20\].FF/Q sky130_fd_sc_hd__dfxtp_1
XREGF\[7\].RFW.BIT\[21\].OBUF2 REGF\[7\].RFW.BIT\[21\].FF/Q REGF\[7\].RFW.INV2\[2\]/Y
+ VGND VGND VPWR VPWR DB[21] sky130_fd_sc_hd__ebufn_2
XREGF\[14\].RFW.BIT\[10\].FF REGF\[14\].RFW.CG\[1\]/GCLK DW[10] VGND VGND VPWR VPWR
+ REGF\[14\].RFW.BIT\[10\].FF/Q sky130_fd_sc_hd__dfxtp_1
XREGF\[30\].RFW.BIT\[13\].FF REGF\[30\].RFW.CG\[1\]/GCLK DW[13] VGND VGND VPWR VPWR
+ REGF\[30\].RFW.BIT\[13\].FF/Q sky130_fd_sc_hd__dfxtp_1
XREGF\[19\].RFW.BIT\[14\].OBUF2 REGF\[19\].RFW.BIT\[14\].FF/Q REGF\[19\].RFW.INV2\[1\]/Y
+ VGND VGND VPWR VPWR DB[14] sky130_fd_sc_hd__ebufn_2
XREGF\[11\].RFW.BIT\[16\].OBUF1 REGF\[11\].RFW.BIT\[16\].FF/Q REGF\[11\].RFW.INV1\[2\]/Y
+ VGND VGND VPWR VPWR DA[16] sky130_fd_sc_hd__ebufn_2
XDEC2.D2.ABUF\[0\] RW[0] VGND VGND VPWR VPWR DEC2.D2.AND7/A sky130_fd_sc_hd__clkbuf_2
XREGF\[29\].RFW.BIT\[18\].FF REGF\[29\].RFW.CG\[2\]/GCLK DW[18] VGND VGND VPWR VPWR
+ REGF\[29\].RFW.BIT\[18\].FF/Q sky130_fd_sc_hd__dfxtp_1
Xtap_54_3 VGND VPWR sky130_fd_sc_hd__tapvpwrvgnd_1
XREGF\[25\].RFW.BIT\[20\].FF REGF\[25\].RFW.CG\[2\]/GCLK DW[20] VGND VGND VPWR VPWR
+ REGF\[25\].RFW.BIT\[20\].FF/Q sky130_fd_sc_hd__dfxtp_1
Xfill_20_12 VGND VPWR sky130_fd_sc_hd__tapvpwrvgnd_1
Xfill_20_23 VGND VGND VPWR VPWR sky130_fd_sc_hd__decap_12
Xfill_20_34 VGND VPWR sky130_fd_sc_hd__tapvpwrvgnd_1
Xtap_47_2 VGND VPWR sky130_fd_sc_hd__tapvpwrvgnd_1
Xfill_29_10 VGND VGND VPWR VPWR sky130_fd_sc_hd__decap_4
Xfill_29_21 VGND VPWR sky130_fd_sc_hd__tapvpwrvgnd_1
Xgenblk1.RFW0.BIT\[30\].OBUF1 genblk1.RFW0.TIE\[3\]/LO genblk1.RFW0.INV1\[3\]/Y VGND
+ VGND VPWR VPWR DA[30] sky130_fd_sc_hd__ebufn_2
Xfill_29_32 VGND VGND VPWR VPWR sky130_fd_sc_hd__fill_2
Xfill_29_43 VGND VGND VPWR VPWR sky130_fd_sc_hd__fill_2
Xfill_29_54 VGND VPWR sky130_fd_sc_hd__tapvpwrvgnd_1
XREGF\[3\].RFW.BIT\[24\].OBUF2 REGF\[3\].RFW.BIT\[24\].FF/Q REGF\[3\].RFW.INV2\[3\]/Y
+ VGND VGND VPWR VPWR DB[24] sky130_fd_sc_hd__ebufn_2
XREGF\[15\].RFW.BIT\[17\].OBUF2 REGF\[15\].RFW.BIT\[17\].FF/Q REGF\[15\].RFW.INV2\[2\]/Y
+ VGND VGND VPWR VPWR DB[17] sky130_fd_sc_hd__ebufn_2
XREGF\[16\].RFW.BIT\[30\].OBUF2 REGF\[16\].RFW.BIT\[30\].FF/Q REGF\[16\].RFW.INV2\[3\]/Y
+ VGND VGND VPWR VPWR DB[30] sky130_fd_sc_hd__ebufn_2
Xfill_45_20 VGND VPWR sky130_fd_sc_hd__tapvpwrvgnd_1
Xfill_45_31 VGND VPWR sky130_fd_sc_hd__tapvpwrvgnd_1
Xfill_45_42 VGND VPWR sky130_fd_sc_hd__tapvpwrvgnd_1
Xfill_45_53 VGND VPWR sky130_fd_sc_hd__tapvpwrvgnd_1
Xfill_45_64 VGND VPWR sky130_fd_sc_hd__tapvpwrvgnd_1
XREGF\[18\].RFW.INV1\[3\] DEC0.D2.AND2/X VGND VGND VPWR VPWR REGF\[18\].RFW.INV1\[3\]/Y
+ sky130_fd_sc_hd__inv_4
Xfill_61_52 VGND VGND VPWR VPWR sky130_fd_sc_hd__fill_2
Xfill_61_41 VGND VPWR sky130_fd_sc_hd__tapvpwrvgnd_1
Xfill_61_30 VGND VPWR sky130_fd_sc_hd__tapvpwrvgnd_1
Xfill_61_63 VGND VGND VPWR VPWR sky130_fd_sc_hd__decap_12
Xgenblk1.RFW0.TIE\[4\] VGND VGND VPWR VPWR genblk1.RFW0.TIE\[4\]/HI genblk1.RFW0.TIE\[4\]/LO
+ sky130_fd_sc_hd__conb_1
Xfill_11_1 VGND VGND VPWR VPWR sky130_fd_sc_hd__decap_8
Xfill_9_3 VGND VPWR sky130_fd_sc_hd__tapvpwrvgnd_1
Xtap_40_9 VGND VPWR sky130_fd_sc_hd__tapvpwrvgnd_1
Xtap_26_7 VGND VPWR sky130_fd_sc_hd__tapvpwrvgnd_1
XREGF\[2\].RFW.BIT\[12\].OBUF2 REGF\[2\].RFW.BIT\[12\].FF/Q REGF\[2\].RFW.INV2\[1\]/Y
+ VGND VGND VPWR VPWR DB[12] sky130_fd_sc_hd__ebufn_2
Xfill_15_12 VGND VPWR sky130_fd_sc_hd__tapvpwrvgnd_1
Xfill_15_23 VGND VGND VPWR VPWR sky130_fd_sc_hd__decap_4
XREGF\[22\].RFW.CGAND DEC2.D2.AND6/X WE VGND VGND VPWR VPWR REGF\[22\].RFW.CGAND/X
+ sky130_fd_sc_hd__and2_1
Xfill_15_34 VGND VPWR sky130_fd_sc_hd__tapvpwrvgnd_1
Xfill_15_45 VGND VPWR sky130_fd_sc_hd__tapvpwrvgnd_1
Xfill_15_56 VGND VGND VPWR VPWR sky130_fd_sc_hd__fill_2
XREGF\[9\].RFW.BIT\[26\].FF REGF\[9\].RFW.CG\[3\]/GCLK DW[26] VGND VGND VPWR VPWR
+ REGF\[9\].RFW.BIT\[26\].FF/Q sky130_fd_sc_hd__dfxtp_1
XREGF\[15\].RFW.BIT\[16\].FF REGF\[15\].RFW.CG\[2\]/GCLK DW[16] VGND VGND VPWR VPWR
+ REGF\[15\].RFW.BIT\[16\].FF/Q sky130_fd_sc_hd__dfxtp_1
Xfill_31_11 VGND VPWR sky130_fd_sc_hd__tapvpwrvgnd_1
Xtap_52_0 VGND VPWR sky130_fd_sc_hd__tapvpwrvgnd_1
Xfill_31_22 VGND VGND VPWR VPWR sky130_fd_sc_hd__fill_2
Xfill_31_33 VGND VPWR sky130_fd_sc_hd__tapvpwrvgnd_1
Xfill_31_44 VGND VPWR sky130_fd_sc_hd__tapvpwrvgnd_1
XREGF\[31\].RFW.BIT\[19\].FF REGF\[31\].RFW.CG\[2\]/GCLK DW[19] VGND VGND VPWR VPWR
+ REGF\[31\].RFW.BIT\[19\].FF/Q sky130_fd_sc_hd__dfxtp_1
XREGF\[9\].RFW.INV2\[0\] DEC1.D1.AND1/X VGND VGND VPWR VPWR REGF\[9\].RFW.INV2\[0\]/Y
+ sky130_fd_sc_hd__inv_4
Xfill_31_55 VGND VGND VPWR VPWR sky130_fd_sc_hd__fill_2
Xfill_56_41 VGND VGND VPWR VPWR sky130_fd_sc_hd__fill_2
Xfill_56_30 VGND VGND VPWR VPWR sky130_fd_sc_hd__decap_8
Xfill_3_36 VGND VPWR sky130_fd_sc_hd__tapvpwrvgnd_1
Xfill_3_25 VGND VPWR sky130_fd_sc_hd__tapvpwrvgnd_1
Xfill_3_14 VGND VGND VPWR VPWR sky130_fd_sc_hd__fill_2
Xfill_3_58 VGND VPWR sky130_fd_sc_hd__tapvpwrvgnd_1
Xfill_3_47 VGND VGND VPWR VPWR sky130_fd_sc_hd__fill_2
XREGF\[11\].RFW.BIT\[21\].OBUF2 REGF\[11\].RFW.BIT\[21\].FF/Q REGF\[11\].RFW.INV2\[2\]/Y
+ VGND VGND VPWR VPWR DB[21] sky130_fd_sc_hd__ebufn_2
XREGF\[26\].RFW.BIT\[26\].FF REGF\[26\].RFW.CG\[3\]/GCLK DW[26] VGND VGND VPWR VPWR
+ REGF\[26\].RFW.BIT\[26\].FF/Q sky130_fd_sc_hd__dfxtp_1
XREGF\[30\].RFW.BIT\[2\].OBUF2 REGF\[30\].RFW.BIT\[2\].FF/Q REGF\[30\].RFW.INV2\[0\]/Y
+ VGND VGND VPWR VPWR DB[2] sky130_fd_sc_hd__ebufn_2
Xfill_59_1 VGND VGND VPWR VPWR sky130_fd_sc_hd__decap_12
XREGF\[26\].RFW.BIT\[18\].OBUF1 REGF\[26\].RFW.BIT\[18\].FF/Q REGF\[26\].RFW.INV1\[2\]/Y
+ VGND VGND VPWR VPWR DA[18] sky130_fd_sc_hd__ebufn_2
XREGF\[27\].RFW.BIT\[31\].OBUF1 REGF\[27\].RFW.BIT\[31\].FF/Q REGF\[27\].RFW.INV1\[3\]/Y
+ VGND VGND VPWR VPWR DA[31] sky130_fd_sc_hd__ebufn_2
Xfill_7_0 VGND VPWR sky130_fd_sc_hd__tapvpwrvgnd_1
XREGF\[5\].RFW.INV1\[1\] DEC0.D0.AND5/X VGND VGND VPWR VPWR REGF\[5\].RFW.INV1\[1\]/Y
+ sky130_fd_sc_hd__inv_4
XDEC1.D3.ABUF\[1\] RB[1] VGND VGND VPWR VPWR DEC1.D3.AND7/B sky130_fd_sc_hd__clkbuf_2
XREGF\[6\].RFW.BIT\[11\].FF REGF\[6\].RFW.CG\[1\]/GCLK DW[11] VGND VGND VPWR VPWR
+ REGF\[6\].RFW.BIT\[11\].FF/Q sky130_fd_sc_hd__dfxtp_1
Xtap_31_5 VGND VPWR sky130_fd_sc_hd__tapvpwrvgnd_1
Xtap_38_12 VGND VPWR sky130_fd_sc_hd__tapvpwrvgnd_1
Xtap_24_4 VGND VPWR sky130_fd_sc_hd__tapvpwrvgnd_1
Xtap_17_3 VGND VPWR sky130_fd_sc_hd__tapvpwrvgnd_1
Xtap_54_11 VGND VPWR sky130_fd_sc_hd__tapvpwrvgnd_1
Xfill_26_11 VGND VPWR sky130_fd_sc_hd__tapvpwrvgnd_1
Xfill_26_22 VGND VGND VPWR VPWR sky130_fd_sc_hd__decap_12
Xfill_26_33 VGND VPWR sky130_fd_sc_hd__tapvpwrvgnd_1
Xfill_42_10 VGND VPWR sky130_fd_sc_hd__tapvpwrvgnd_1
Xfill_42_21 VGND VPWR sky130_fd_sc_hd__tapvpwrvgnd_1
Xfill_42_32 VGND VPWR sky130_fd_sc_hd__tapvpwrvgnd_1
XREGF\[8\].RFW.BIT\[24\].OBUF1 REGF\[8\].RFW.BIT\[24\].FF/Q REGF\[8\].RFW.INV1\[3\]/Y
+ VGND VGND VPWR VPWR DA[24] sky130_fd_sc_hd__ebufn_2
XREGF\[23\].RFW.BIT\[11\].FF REGF\[23\].RFW.CG\[1\]/GCLK DW[11] VGND VGND VPWR VPWR
+ REGF\[23\].RFW.BIT\[11\].FF/Q sky130_fd_sc_hd__dfxtp_1
Xfill_52_8 VGND VPWR sky130_fd_sc_hd__tapvpwrvgnd_1
Xfill_45_7 VGND VPWR sky130_fd_sc_hd__tapvpwrvgnd_1
Xfill_38_6 VGND VGND VPWR VPWR sky130_fd_sc_hd__decap_8
Xfill_0_7 VGND VPWR sky130_fd_sc_hd__tapvpwrvgnd_1
XDEC2.D1.AND7 DEC2.D1.AND7/A DEC2.D1.AND7/B DEC2.D1.AND7/C DEC2.D1.AND7/D VGND VGND
+ VPWR VPWR DEC2.D1.AND7/X sky130_fd_sc_hd__and4_2
XREGF\[12\].RFW.BIT\[24\].FF REGF\[12\].RFW.CG\[3\]/GCLK DW[24] VGND VGND VPWR VPWR
+ REGF\[12\].RFW.BIT\[24\].FF/Q sky130_fd_sc_hd__dfxtp_1
XREGF\[22\].RFW.CG\[1\] CLK REGF\[22\].RFW.CGAND/X VGND VGND VPWR VPWR REGF\[22\].RFW.CG\[1\]/GCLK
+ sky130_fd_sc_hd__dlclkp_1
XREGF\[4\].RFW.BIT\[27\].OBUF1 REGF\[4\].RFW.BIT\[27\].FF/Q REGF\[4\].RFW.INV1\[3\]/Y
+ VGND VGND VPWR VPWR DA[27] sky130_fd_sc_hd__ebufn_2
XREGF\[22\].RFW.BIT\[22\].OBUF1 REGF\[22\].RFW.BIT\[22\].FF/Q REGF\[22\].RFW.INV1\[2\]/Y
+ VGND VGND VPWR VPWR DA[22] sky130_fd_sc_hd__ebufn_2
Xfill_12_13 VGND VGND VPWR VPWR sky130_fd_sc_hd__decap_12
Xfill_12_24 VGND VGND VPWR VPWR sky130_fd_sc_hd__fill_2
Xfill_12_35 VGND VPWR sky130_fd_sc_hd__tapvpwrvgnd_1
XREGF\[7\].RFW.BIT\[12\].OBUF1 REGF\[7\].RFW.BIT\[12\].FF/Q REGF\[7\].RFW.INV1\[1\]/Y
+ VGND VGND VPWR VPWR DA[12] sky130_fd_sc_hd__ebufn_2
Xtap_22_1 VGND VPWR sky130_fd_sc_hd__tapvpwrvgnd_1
Xtap_15_0 VGND VPWR sky130_fd_sc_hd__tapvpwrvgnd_1
Xfill_37_10 VGND VPWR sky130_fd_sc_hd__tapvpwrvgnd_1
Xfill_37_21 VGND VGND VPWR VPWR sky130_fd_sc_hd__fill_2
Xfill_37_32 VGND VPWR sky130_fd_sc_hd__tapvpwrvgnd_1
Xfill_37_43 VGND VPWR sky130_fd_sc_hd__tapvpwrvgnd_1
Xfill_37_54 VGND VGND VPWR VPWR sky130_fd_sc_hd__decap_4
Xfill_37_65 VGND VGND VPWR VPWR sky130_fd_sc_hd__decap_12
XREGF\[8\].RFW.BIT\[28\].OBUF2 REGF\[8\].RFW.BIT\[28\].FF/Q REGF\[8\].RFW.INV2\[3\]/Y
+ VGND VGND VPWR VPWR DB[28] sky130_fd_sc_hd__ebufn_2
Xfill_53_20 VGND VPWR sky130_fd_sc_hd__tapvpwrvgnd_1
Xfill_53_64 VGND VPWR sky130_fd_sc_hd__tapvpwrvgnd_1
Xfill_53_53 VGND VPWR sky130_fd_sc_hd__tapvpwrvgnd_1
Xfill_53_42 VGND VPWR sky130_fd_sc_hd__tapvpwrvgnd_1
Xfill_53_31 VGND VPWR sky130_fd_sc_hd__tapvpwrvgnd_1
Xfill_9_24 VGND VGND VPWR VPWR sky130_fd_sc_hd__decap_4
Xfill_9_13 VGND VPWR sky130_fd_sc_hd__tapvpwrvgnd_1
XDEC2.D.AND3 RW[4] RW[3] DEC2.TIE/HI VGND VGND VPWR VPWR DEC2.D.AND3/X sky130_fd_sc_hd__and3_4
XREGF\[26\].RFW.BIT\[23\].OBUF2 REGF\[26\].RFW.BIT\[23\].FF/Q REGF\[26\].RFW.INV2\[2\]/Y
+ VGND VGND VPWR VPWR DB[23] sky130_fd_sc_hd__ebufn_2
Xfill_9_57 VGND VGND VPWR VPWR sky130_fd_sc_hd__fill_2
Xfill_9_46 VGND VPWR sky130_fd_sc_hd__tapvpwrvgnd_1
Xfill_9_35 VGND VPWR sky130_fd_sc_hd__tapvpwrvgnd_1
XREGF\[7\].RFW.BIT\[17\].FF REGF\[7\].RFW.CG\[2\]/GCLK DW[17] VGND VGND VPWR VPWR
+ REGF\[7\].RFW.BIT\[17\].FF/Q sky130_fd_sc_hd__dfxtp_1
XREGF\[31\].RFW.BIT\[12\].OBUF2 REGF\[31\].RFW.BIT\[12\].FF/Q REGF\[31\].RFW.INV2\[1\]/Y
+ VGND VGND VPWR VPWR DB[12] sky130_fd_sc_hd__ebufn_2
Xfill_50_5 VGND VGND VPWR VPWR sky130_fd_sc_hd__decap_12
Xfill_43_4 VGND VPWR sky130_fd_sc_hd__tapvpwrvgnd_1
XREGF\[3\].RFW.BIT\[15\].OBUF1 REGF\[3\].RFW.BIT\[15\].FF/Q REGF\[3\].RFW.INV1\[1\]/Y
+ VGND VGND VPWR VPWR DA[15] sky130_fd_sc_hd__ebufn_2
Xfill_36_3 VGND VPWR sky130_fd_sc_hd__tapvpwrvgnd_1
XREGF\[16\].RFW.BIT\[21\].OBUF1 REGF\[16\].RFW.BIT\[21\].FF/Q REGF\[16\].RFW.INV1\[2\]/Y
+ VGND VGND VPWR VPWR DA[21] sky130_fd_sc_hd__ebufn_2
Xfill_29_2 VGND VGND VPWR VPWR sky130_fd_sc_hd__decap_3
XREGF\[10\].RFW.CG\[1\] CLK REGF\[10\].RFW.CGAND/X VGND VGND VPWR VPWR REGF\[10\].RFW.CG\[1\]/GCLK
+ sky130_fd_sc_hd__dlclkp_1
XREGF\[21\].RFW.BIT\[10\].OBUF1 REGF\[21\].RFW.BIT\[10\].FF/Q REGF\[21\].RFW.INV1\[1\]/Y
+ VGND VGND VPWR VPWR DA[10] sky130_fd_sc_hd__ebufn_2
XREGF\[24\].RFW.BIT\[17\].FF REGF\[24\].RFW.CG\[2\]/GCLK DW[17] VGND VGND VPWR VPWR
+ REGF\[24\].RFW.BIT\[17\].FF/Q sky130_fd_sc_hd__dfxtp_1
XREGF\[22\].RFW.BIT\[26\].OBUF2 REGF\[22\].RFW.BIT\[26\].FF/Q REGF\[22\].RFW.INV2\[3\]/Y
+ VGND VGND VPWR VPWR DB[26] sky130_fd_sc_hd__ebufn_2
XREGF\[7\].RFW.BIT\[16\].OBUF2 REGF\[7\].RFW.BIT\[16\].FF/Q REGF\[7\].RFW.INV2\[2\]/Y
+ VGND VGND VPWR VPWR DB[16] sky130_fd_sc_hd__ebufn_2
XREGF\[31\].RFW.INV1\[2\] DEC0.D3.AND7/X VGND VGND VPWR VPWR REGF\[31\].RFW.INV1\[2\]/Y
+ sky130_fd_sc_hd__inv_4
Xfill_23_12 VGND VGND VPWR VPWR sky130_fd_sc_hd__fill_2
Xfill_23_23 VGND VPWR sky130_fd_sc_hd__tapvpwrvgnd_1
Xfill_23_34 VGND VGND VPWR VPWR sky130_fd_sc_hd__fill_2
Xfill_23_45 VGND VGND VPWR VPWR sky130_fd_sc_hd__fill_2
Xfill_23_56 VGND VPWR sky130_fd_sc_hd__tapvpwrvgnd_1
XREGF\[12\].RFW.BIT\[24\].OBUF1 REGF\[12\].RFW.BIT\[24\].FF/Q REGF\[12\].RFW.INV1\[3\]/Y
+ VGND VGND VPWR VPWR DA[24] sky130_fd_sc_hd__ebufn_2
XREGF\[25\].RFW.BIT\[11\].OBUF2 REGF\[25\].RFW.BIT\[11\].FF/Q REGF\[25\].RFW.INV2\[1\]/Y
+ VGND VGND VPWR VPWR DB[11] sky130_fd_sc_hd__ebufn_2
XREGF\[19\].RFW.BIT\[24\].FF REGF\[19\].RFW.CG\[3\]/GCLK DW[24] VGND VGND VPWR VPWR
+ REGF\[19\].RFW.BIT\[24\].FF/Q sky130_fd_sc_hd__dfxtp_1
Xfill_48_20 VGND VPWR sky130_fd_sc_hd__tapvpwrvgnd_1
Xfill_48_31 VGND VGND VPWR VPWR sky130_fd_sc_hd__fill_2
XREGF\[14\].RFW.INV2\[1\] DEC1.D1.AND6/X VGND VGND VPWR VPWR REGF\[14\].RFW.INV2\[1\]/Y
+ sky130_fd_sc_hd__inv_4
Xfill_22_9 VGND VGND VPWR VPWR sky130_fd_sc_hd__fill_2
Xfill_15_8 VGND VPWR sky130_fd_sc_hd__tapvpwrvgnd_1
XREGF\[31\].RFW.BIT\[0\].OBUF2 REGF\[31\].RFW.BIT\[0\].FF/Q REGF\[31\].RFW.INV2\[0\]/Y
+ VGND VGND VPWR VPWR DB[0] sky130_fd_sc_hd__ebufn_2
Xgenblk1.RFW0.BIT\[25\].OBUF1 genblk1.RFW0.TIE\[3\]/LO genblk1.RFW0.INV1\[3\]/Y VGND
+ VGND VPWR VPWR DA[25] sky130_fd_sc_hd__ebufn_2
XREGF\[3\].RFW.BIT\[19\].OBUF2 REGF\[3\].RFW.BIT\[19\].FF/Q REGF\[3\].RFW.INV2\[2\]/Y
+ VGND VGND VPWR VPWR DB[19] sky130_fd_sc_hd__ebufn_2
XDEC0.D2.AND0 DEC0.D2.AND7/A DEC0.D2.AND7/B DEC0.D2.AND7/C DEC0.D2.AND7/D VGND VGND
+ VPWR VPWR DEC0.D2.AND0/Y sky130_fd_sc_hd__nor4b_2
XREGF\[16\].RFW.BIT\[25\].OBUF2 REGF\[16\].RFW.BIT\[25\].FF/Q REGF\[16\].RFW.INV2\[3\]/Y
+ VGND VGND VPWR VPWR DB[25] sky130_fd_sc_hd__ebufn_2
XREGF\[21\].RFW.BIT\[14\].OBUF2 REGF\[21\].RFW.BIT\[14\].FF/Q REGF\[21\].RFW.INV2\[1\]/Y
+ VGND VGND VPWR VPWR DB[14] sky130_fd_sc_hd__ebufn_2
Xfill_41_1 VGND VGND VPWR VPWR sky130_fd_sc_hd__decap_12
Xfill_34_0 VGND VPWR sky130_fd_sc_hd__tapvpwrvgnd_1
XREGF\[19\].RFW.BIT\[10\].OBUF2 REGF\[19\].RFW.BIT\[10\].FF/Q REGF\[19\].RFW.INV2\[1\]/Y
+ VGND VGND VPWR VPWR DB[10] sky130_fd_sc_hd__ebufn_2
XREGF\[11\].RFW.BIT\[12\].OBUF1 REGF\[11\].RFW.BIT\[12\].FF/Q REGF\[11\].RFW.INV1\[1\]/Y
+ VGND VGND VPWR VPWR DA[12] sky130_fd_sc_hd__ebufn_2
Xtap_56_7 VGND VPWR sky130_fd_sc_hd__tapvpwrvgnd_1
XREGF\[10\].RFW.BIT\[15\].FF REGF\[10\].RFW.CG\[1\]/GCLK DW[15] VGND VGND VPWR VPWR
+ REGF\[10\].RFW.BIT\[15\].FF/Q sky130_fd_sc_hd__dfxtp_1
XREGF\[4\].RFW.BIT\[25\].FF REGF\[4\].RFW.CG\[3\]/GCLK DW[25] VGND VGND VPWR VPWR
+ REGF\[4\].RFW.BIT\[25\].FF/Q sky130_fd_sc_hd__dfxtp_1
XREGF\[10\].RFW.INV1\[2\] DEC0.D1.AND2/X VGND VGND VPWR VPWR REGF\[10\].RFW.INV1\[2\]/Y
+ sky130_fd_sc_hd__inv_4
Xtap_46_12 VGND VPWR sky130_fd_sc_hd__tapvpwrvgnd_1
XREGF\[12\].RFW.BIT\[28\].OBUF2 REGF\[12\].RFW.BIT\[28\].FF/Q REGF\[12\].RFW.INV2\[3\]/Y
+ VGND VGND VPWR VPWR DB[28] sky130_fd_sc_hd__ebufn_2
XREGF\[26\].RFW.INV1\[3\] DEC0.D3.AND2/X VGND VGND VPWR VPWR REGF\[26\].RFW.INV1\[3\]/Y
+ sky130_fd_sc_hd__inv_4
Xfill_18_12 VGND VGND VPWR VPWR sky130_fd_sc_hd__decap_12
Xfill_18_23 VGND VGND VPWR VPWR sky130_fd_sc_hd__fill_2
Xfill_18_34 VGND VPWR sky130_fd_sc_hd__tapvpwrvgnd_1
Xtap_62_11 VGND VPWR sky130_fd_sc_hd__tapvpwrvgnd_1
Xfill_34_11 VGND VPWR sky130_fd_sc_hd__tapvpwrvgnd_1
Xfill_34_22 VGND VGND VPWR VPWR sky130_fd_sc_hd__decap_12
Xfill_34_33 VGND VPWR sky130_fd_sc_hd__tapvpwrvgnd_1
XREGF\[3\].RFW.BIT\[20\].OBUF2 REGF\[3\].RFW.BIT\[20\].FF/Q REGF\[3\].RFW.INV2\[2\]/Y
+ VGND VGND VPWR VPWR DB[20] sky130_fd_sc_hd__ebufn_2
Xfill_50_10 VGND VPWR sky130_fd_sc_hd__tapvpwrvgnd_1
Xfill_50_21 VGND VPWR sky130_fd_sc_hd__tapvpwrvgnd_1
Xfill_50_32 VGND VPWR sky130_fd_sc_hd__tapvpwrvgnd_1
XREGF\[15\].RFW.BIT\[13\].OBUF2 REGF\[15\].RFW.BIT\[13\].FF/Q REGF\[15\].RFW.INV2\[1\]/Y
+ VGND VGND VPWR VPWR DB[13] sky130_fd_sc_hd__ebufn_2
XREGF\[19\].RFW.BIT\[8\].FF REGF\[19\].RFW.CG\[1\]/GCLK DW[8] VGND VGND VPWR VPWR
+ REGF\[19\].RFW.BIT\[8\].FF/Q sky130_fd_sc_hd__dfxtp_1
Xfill_6_14 VGND VGND VPWR VPWR sky130_fd_sc_hd__decap_8
XREGF\[21\].RFW.BIT\[25\].FF REGF\[21\].RFW.CG\[3\]/GCLK DW[25] VGND VGND VPWR VPWR
+ REGF\[21\].RFW.BIT\[25\].FF/Q sky130_fd_sc_hd__dfxtp_1
Xfill_59_63 VGND VGND VPWR VPWR sky130_fd_sc_hd__decap_12
Xfill_59_52 VGND VGND VPWR VPWR sky130_fd_sc_hd__fill_2
Xfill_59_41 VGND VPWR sky130_fd_sc_hd__tapvpwrvgnd_1
Xfill_59_30 VGND VPWR sky130_fd_sc_hd__tapvpwrvgnd_1
Xfill_6_36 VGND VPWR sky130_fd_sc_hd__tapvpwrvgnd_1
Xfill_6_25 VGND VPWR sky130_fd_sc_hd__tapvpwrvgnd_1
Xgenblk1.RFW0.BIT\[29\].OBUF2 genblk1.RFW0.TIE\[7\]/LO genblk1.RFW0.INV2\[3\]/Y VGND
+ VGND VPWR VPWR DB[29] sky130_fd_sc_hd__ebufn_2
Xfill_20_6 VGND VPWR sky130_fd_sc_hd__tapvpwrvgnd_1
Xfill_13_5 VGND VPWR sky130_fd_sc_hd__tapvpwrvgnd_1
XREGF\[11\].RFW.BIT\[16\].OBUF2 REGF\[11\].RFW.BIT\[16\].FF/Q REGF\[11\].RFW.INV2\[2\]/Y
+ VGND VGND VPWR VPWR DB[16] sky130_fd_sc_hd__ebufn_2
XREGF\[1\].RFW.BIT\[10\].FF REGF\[1\].RFW.CG\[1\]/GCLK DW[10] VGND VGND VPWR VPWR
+ REGF\[1\].RFW.BIT\[10\].FF/Q sky130_fd_sc_hd__dfxtp_1
XREGF\[21\].RFW.CGAND DEC2.D2.AND5/X WE VGND VGND VPWR VPWR REGF\[21\].RFW.CGAND/X
+ sky130_fd_sc_hd__and2_1
Xtap_54_4 VGND VPWR sky130_fd_sc_hd__tapvpwrvgnd_1
Xfill_20_13 VGND VGND VPWR VPWR sky130_fd_sc_hd__decap_12
Xfill_20_24 VGND VGND VPWR VPWR sky130_fd_sc_hd__fill_2
Xfill_20_35 VGND VPWR sky130_fd_sc_hd__tapvpwrvgnd_1
XREGF\[27\].RFW.BIT\[26\].OBUF1 REGF\[27\].RFW.BIT\[26\].FF/Q REGF\[27\].RFW.INV1\[3\]/Y